
     RDKit          3D

  8  7  0  0  0  0  0  0  0  0999 V2000
  -14.2349   27.4615  -22.1729 O   0  0  0  0  0  0  0  0  0  0  0  0
  -15.2562   28.3288  -22.3813 C   0  0  0  0  0  0  0  0  0  0  0  0
  -14.9379   29.6793  -22.4591 N   0  0  0  0  0  0  0  0  0  0  0  0
  -16.5673   27.9292  -22.4680 N   0  0  0  0  0  0  0  0  0  0  0  0
  -16.8982   26.5081  -22.3807 C   0  0  0  0  0  0  0  0  0  0  0  0
  -14.2356   30.3014  -23.3052 C   0  0  0  0  0  0  0  0  0  0  0  0
  -14.9535   31.6472  -23.5173 C   0  0  0  0  0  0  0  0  0  0  0  0
  -14.5441   32.4567  -24.5064 O   0  0  0  0  0  0  0  0  0  0  0  0
  1  2  2  0
  2  3  1  0
  2  4  1  0
  4  5  1  0
  3  6  1  0
  6  7  1  0
  7  8  1  0
M  END
