
     RDKit          3D

  8  7  0  0  0  0  0  0  0  0999 V2000
  -10.9712   35.7063  -29.3155 C   0  0  0  0  0  0  0  0  0  0  0  0
  -10.8868   35.1400  -30.3414 C   0  0  0  0  0  0  0  0  0  0  0  0
  -10.9400   35.1611  -28.0742 C   0  0  0  0  0  0  0  0  0  0  0  0
  -11.6045   34.0094  -30.5104 C   0  0  0  0  0  0  0  0  0  0  0  0
  -10.4076   34.0764  -27.9268 C   0  0  0  0  0  0  0  0  0  0  0  0
  -12.4219   33.8451  -31.6720 C   0  0  0  0  0  0  0  0  0  0  0  0
  -11.2023   35.9528  -26.8393 C   0  0  0  0  0  0  0  0  0  0  0  0
  -13.6465   33.6525  -31.7254 C   0  0  0  0  0  0  0  0  0  0  0  0
  1  2  1  0
  1  3  1  0
  2  4  1  0
  3  5  2  0
  4  6  1  0
  3  7  1  0
  6  8  1  0
M  END
