
     RDKit          3D

  9  9  0  0  0  0  0  0  0  0999 V2000
  -12.8325   27.1646  -21.9545 O   0  0  0  0  0  0  0  0  0  0  0  0
  -12.3360   26.4862  -21.1848 C   0  0  0  0  0  0  0  0  0  0  0  0
  -11.0048   26.6114  -20.8400 C   0  0  0  0  0  0  0  0  0  0  0  0
  -10.3306   25.4091  -20.5518 C   0  0  0  0  0  0  0  0  0  0  0  0
  -10.3678   27.7530  -20.8972 C   0  0  0  0  0  0  0  0  0  0  0  0
   -9.0995   25.2189  -20.8373 C   0  0  0  0  0  0  0  0  0  0  0  0
  -12.9742   25.4371  -20.7324 N   0  0  0  0  0  0  0  0  0  0  0  0
   -8.3751   26.3929  -20.8554 C   0  0  0  0  0  0  0  0  0  0  0  0
   -8.9501   27.6334  -20.8773 C   0  0  0  0  0  0  0  0  0  0  0  0
  1  2  2  0
  2  3  1  0
  3  4  1  0
  3  5  2  0
  4  6  2  0
  2  7  1  0
  6  8  1  0
  5  9  1  0
  8  9  2  0
M  END
