
     RDKit          3D

 10 10  0  0  0  0  0  0  0  0999 V2000
  -22.3600   34.7135  -21.1145 O   0  0  0  0  0  0  0  0  0  0  0  0
  -21.0143   34.8049  -21.3271 C   0  0  0  0  0  0  0  0  0  0  0  0
  -20.1592   34.3317  -20.3355 C   0  0  0  0  0  0  0  0  0  0  0  0
  -20.3143   33.1111  -19.9414 O   0  0  0  0  0  0  0  0  0  0  0  0
  -20.5320   36.0055  -22.0396 C   0  0  0  0  0  0  0  0  0  0  0  0
  -19.2599   36.2714  -21.7632 O   0  0  0  0  0  0  0  0  0  0  0  0
  -18.8231   34.8693  -20.9554 C   0  0  0  0  0  0  0  0  0  0  0  0
  -17.7621   35.3453  -19.9555 C   0  0  0  0  0  0  0  0  0  0  0  0
  -17.0196   36.4947  -20.3137 O   0  0  0  0  0  0  0  0  0  0  0  0
  -21.3264   36.6092  -22.7850 O   0  0  0  0  0  0  0  0  0  0  0  0
  1  2  1  0
  2  3  1  0
  3  4  1  0
  2  5  1  0
  5  6  1  0
  3  7  1  0
  6  7  1  0
  7  8  1  0
  8  9  1  0
  5 10  2  0
M  END
