
     RDKit          3D

 11 10  0  0  0  0  0  0  0  0999 V2000
  -16.7605   36.4648  -19.7897 O   0  0  0  0  0  0  0  0  0  0  0  0
  -17.5754   36.9136  -20.8423 P   0  0  0  0  0  0  0  0  0  0  0  0
  -16.9670   37.7048  -21.8111 O   0  0  0  0  0  0  0  0  0  0  0  0
  -18.2159   35.6983  -21.8115 O   0  0  0  0  0  0  0  0  0  0  0  0
  -19.5228   35.5224  -22.1670 C   0  0  0  0  0  0  0  0  0  0  0  0
  -20.2876   34.4567  -21.6334 C   0  0  0  0  0  0  0  0  0  0  0  0
  -19.5203   33.4386  -20.8559 P   0  0  0  0  0  0  0  0  0  0  0  0
  -19.9127   33.2512  -19.5321 O   0  0  0  0  0  0  0  0  0  0  0  0
  -18.7090   37.7666  -20.2430 O   0  0  0  0  0  0  0  0  0  0  0  0
  -19.5732   32.0391  -21.6869 O   0  0  0  0  0  0  0  0  0  0  0  0
  -17.9672   33.6501  -20.8443 O   0  0  0  0  0  0  0  0  0  0  0  0
  1  2  1  0
  2  3  2  0
  2  4  1  0
  4  5  1  0
  5  6  1  0
  6  7  1  0
  7  8  1  0
  2  9  1  0
  7 10  2  0
  7 11  1  0
M  END
