
     RDKit          3D

 11 10  0  0  0  0  0  0  0  0999 V2000
  -21.9194   34.3726  -21.0840 O   0  0  0  0  0  0  0  0  0  0  0  0
  -20.5695   34.3265  -21.0564 P   0  0  0  0  0  0  0  0  0  0  0  0
  -19.9532   35.2538  -21.6233 O   0  0  0  0  0  0  0  0  0  0  0  0
  -20.0437   32.9504  -21.8877 O   0  0  0  0  0  0  0  0  0  0  0  0
  -20.0980   33.9428  -19.6152 O   0  0  0  0  0  0  0  0  0  0  0  0
  -18.4371   35.9468  -21.2329 P   0  0  0  0  0  0  0  0  0  0  0  0
  -17.5296   35.9510  -22.3225 O   0  0  0  0  0  0  0  0  0  0  0  0
  -19.3614   31.8208  -21.3743 C   0  0  0  0  0  0  0  0  0  0  0  0
  -19.7230   30.6944  -21.5835 C   0  0  0  0  0  0  0  0  0  0  0  0
  -17.9021   35.0743  -20.1117 O   0  0  0  0  0  0  0  0  0  0  0  0
  -18.6469   37.3728  -20.6620 O   0  0  0  0  0  0  0  0  0  0  0  0
  1  2  1  0
  2  3  1  0
  2  4  1  0
  2  5  2  0
  3  6  1  0
  6  7  1  0
  4  8  1  0
  8  9  2  0
  6 10  1  0
  6 11  2  0
M  END
