
     RDKit          3D

 11 10  0  0  0  0  0  0  0  0999 V2000
  -12.8325   27.1646  -21.9545 O   0  0  0  0  0  0  0  0  0  0  0  0
  -12.3360   26.4862  -21.1848 C   0  0  0  0  0  0  0  0  0  0  0  0
  -11.0048   26.6114  -20.8400 C   0  0  0  0  0  0  0  0  0  0  0  0
  -13.0568   25.7170  -20.5016 N   0  0  0  0  0  0  0  0  0  0  0  0
  -10.3138   27.6350  -20.6380 C   0  0  0  0  0  0  0  0  0  0  0  0
  -10.9841   28.7664  -20.5245 C   0  0  0  0  0  0  0  0  0  0  0  0
  -10.8289   29.3440  -19.3615 O   0  0  0  0  0  0  0  0  0  0  0  0
  -10.3177   25.2794  -20.6377 C   0  0  0  0  0  0  0  0  0  0  0  0
  -11.5614   29.5004  -21.4607 C   0  0  0  0  0  0  0  0  0  0  0  0
  -12.5496   30.4845  -20.8403 C   0  0  0  0  0  0  0  0  0  0  0  0
   -9.4928   24.7604  -20.8478 N   0  0  0  0  0  0  0  0  0  0  0  0
  1  2  2  0
  2  3  1  0
  2  4  1  0
  3  5  2  3
  5  6  1  0
  6  7  2  0
  3  8  1  0
  6  9  1  0
  9 10  1  0
  8 11  3  0
M  END
