
     RDKit          3D

 12 12  0  0  0  0  0  0  0  0999 V2000
  -12.8325   27.1646  -21.9545 C   0  0  0  0  0  0  0  0  0  0  0  0
  -14.2420   27.4642  -22.0993 C   0  0  0  0  0  0  0  0  0  0  0  0
  -12.4153   26.5761  -20.8885 C   0  0  0  0  0  0  0  0  0  0  0  0
  -15.2918   26.8686  -21.7799 C   0  0  0  0  0  0  0  0  0  0  0  0
  -16.3940   27.4198  -22.0417 C   0  0  0  0  0  0  0  0  0  0  0  0
  -17.6277   26.8409  -22.1901 C   0  0  0  0  0  0  0  0  0  0  0  0
  -16.3549   28.8603  -22.3190 C   0  0  0  0  0  0  0  0  0  0  0  0
  -11.5709   25.6623  -21.0081 C   0  0  0  0  0  0  0  0  0  0  0  0
  -14.2574   28.8768  -22.4304 C   0  0  0  0  0  0  0  0  0  0  0  0
  -10.8847   25.0664  -20.0753 C   0  0  0  0  0  0  0  0  0  0  0  0
  -15.3687   29.5982  -22.4667 C   0  0  0  0  0  0  0  0  0  0  0  0
  -10.4021   24.5354  -19.4961 C   0  0  0  0  0  0  0  0  0  0  0  0
  1  2  2  3
  1  3  1  0
  2  4  1  0
  4  5  1  0
  5  6  2  0
  5  7  1  0
  3  8  2  3
  2  9  1  0
  8 10  1  0
  7 11  2  0
  9 11  1  0
 10 12  3  0
M  END
