
     RDKit          3D

 13 13  0  0  0  0  0  0  0  0999 V2000
  -12.7418   26.8530  -22.2493 C   0  0  0  0  0  0  0  0  0  0  0  0
  -12.1725   26.2459  -21.3062 C   0  0  0  0  0  0  0  0  0  0  0  0
  -14.0459   27.0586  -22.1941 C   0  0  0  0  0  0  0  0  0  0  0  0
  -14.6405   28.2227  -22.8598 C   0  0  0  0  0  0  0  0  0  0  0  0
  -10.6443   26.1751  -21.1363 C   0  0  0  0  0  0  0  0  0  0  0  0
  -10.1565   25.0469  -20.5242 C   0  0  0  0  0  0  0  0  0  0  0  0
   -9.0564   24.9916  -20.2393 O   0  0  0  0  0  0  0  0  0  0  0  0
  -10.9047   24.0275  -20.4736 O   0  0  0  0  0  0  0  0  0  0  0  0
  -14.0570   29.3595  -22.8195 C   0  0  0  0  0  0  0  0  0  0  0  0
  -15.7453   28.3846  -22.2258 C   0  0  0  0  0  0  0  0  0  0  0  0
  -16.6600   27.5271  -21.9828 O   0  0  0  0  0  0  0  0  0  0  0  0
  -16.0409   29.6116  -21.6602 N   0  0  0  0  0  0  0  0  0  0  0  0
  -14.6247   30.2190  -22.1641 C   0  0  0  0  0  0  0  0  0  0  0  0
  1  2  2  3
  1  3  1  0
  3  4  1  0
  2  5  1  0
  5  6  1  0
  6  7  1  0
  6  8  2  0
  4  9  1  0
  4 10  1  0
 10 11  2  0
 10 12  1  0
  9 13  1  0
 12 13  1  0
M  END
