
     RDKit          3D

 13 13  0  0  0  0  0  0  0  0999 V2000
  -12.8325   27.1646  -21.9545 C   0  0  0  0  0  0  0  0  0  0  0  0
  -12.4521   26.4852  -20.9820 C   0  0  0  0  0  0  0  0  0  0  0  0
  -11.9832   25.4505  -20.0665 C   0  0  0  0  0  0  0  0  0  0  0  0
  -13.2980   27.9505  -22.8442 C   0  0  0  0  0  0  0  0  0  0  0  0
  -14.5213   27.4272  -23.3176 C   0  0  0  0  0  0  0  0  0  0  0  0
  -13.8521   29.2948  -22.3536 C   0  0  0  0  0  0  0  0  0  0  0  0
  -15.7341   28.1904  -22.8816 C   0  0  0  0  0  0  0  0  0  0  0  0
  -10.6145   25.1914  -20.4259 C   0  0  0  0  0  0  0  0  0  0  0  0
   -9.9140   24.4495  -19.9337 C   0  0  0  0  0  0  0  0  0  0  0  0
   -9.4122   23.8683  -19.6331 N   0  0  0  0  0  0  0  0  0  0  0  0
  -15.2171   29.4361  -22.3083 C   0  0  0  0  0  0  0  0  0  0  0  0
  -15.7612   29.7735  -21.1050 O   0  0  0  0  0  0  0  0  0  0  0  0
  -16.3820   27.3308  -21.8815 O   0  0  0  0  0  0  0  0  0  0  0  0
  1  2  3  0
  2  3  1  0
  1  4  1  0
  4  5  1  0
  4  6  1  0
  5  7  1  0
  3  8  1  0
  8  9  1  0
  9 10  3  0
  6 11  1  0
  7 11  1  0
 11 12  1  0
  7 13  1  0
M  END
