
     RDKit          3D

 15 14  0  0  0  0  0  0  0  0999 V2000
  -16.1764   36.1893  -20.2039 O   0  0  0  0  0  0  0  0  0  0  0  0
  -17.5211   36.7767  -20.4552 P   0  0  0  0  0  0  0  0  0  0  0  0
  -17.4740   38.0673  -20.8933 O   0  0  0  0  0  0  0  0  0  0  0  0
  -18.3532   35.9038  -21.5265 O   0  0  0  0  0  0  0  0  0  0  0  0
  -18.3019   36.4085  -19.1593 O   0  0  0  0  0  0  0  0  0  0  0  0
  -18.1150   36.0868  -23.0437 P   0  0  0  0  0  0  0  0  0  0  0  0
  -16.7124   35.9332  -23.2305 O   0  0  0  0  0  0  0  0  0  0  0  0
  -18.8741   34.6744  -23.4030 O   0  0  0  0  0  0  0  0  0  0  0  0
  -18.3103   33.3049  -22.8770 C   0  0  0  0  0  0  0  0  0  0  0  0
  -18.9872   37.0527  -23.7684 O   0  0  0  0  0  0  0  0  0  0  0  0
  -19.2869   32.6093  -22.3423 C   0  0  0  0  0  0  0  0  0  0  0  0
  -19.4664   32.9196  -20.9088 C   0  0  0  0  0  0  0  0  0  0  0  0
  -19.0454   32.1873  -20.0012 O   0  0  0  0  0  0  0  0  0  0  0  0
  -20.3555   33.8116  -20.6812 O   0  0  0  0  0  0  0  0  0  0  0  0
  -18.9509   31.1002  -22.4749 O   0  0  0  0  0  0  0  0  0  0  0  0
  1  2  1  0
  2  3  2  0
  2  4  1  0
  2  5  1  0
  4  6  1  0
  6  7  2  0
  6  8  1  0
  8  9  1  0
  6 10  1  0
  9 11  1  0
 11 12  1  0
 12 13  2  0
 12 14  1  0
 11 15  1  0
M  END
