
     RDKit          3D

 15 14  0  0  0  0  0  0  0  0999 V2000
  -13.9219   27.5101  -22.4405 O   0  0  0  0  0  0  0  0  0  0  0  0
  -15.3187   28.0285  -22.2010 C   0  0  0  0  0  0  0  0  0  0  0  0
  -16.2408   27.3361  -22.0889 N   0  0  0  0  0  0  0  0  0  0  0  0
  -15.3832   29.5150  -22.0285 N   0  0  0  0  0  0  0  0  0  0  0  0
  -15.5335   30.4211  -22.9177 C   0  0  0  0  0  0  0  0  0  0  0  0
  -16.8229   31.0936  -23.0273 C   0  0  0  0  0  0  0  0  0  0  0  0
  -16.9247   32.1316  -24.0444 C   0  0  0  0  0  0  0  0  0  0  0  0
  -17.9629   30.3003  -22.7525 C   0  0  0  0  0  0  0  0  0  0  0  0
  -15.8122   32.7097  -24.3209 O   0  0  0  0  0  0  0  0  0  0  0  0
  -18.9657   31.0308  -21.9816 C   0  0  0  0  0  0  0  0  0  0  0  0
  -18.6536   32.4118  -21.6805 O   0  0  0  0  0  0  0  0  0  0  0  0
  -19.6643   33.3777  -21.0091 P   0  0  0  0  0  0  0  0  0  0  0  0
  -19.2003   33.9007  -19.8715 O   0  0  0  0  0  0  0  0  0  0  0  0
  -19.9517   34.4113  -22.0418 O   0  0  0  0  0  0  0  0  0  0  0  0
  -20.9123   32.7522  -20.5798 O   0  0  0  0  0  0  0  0  0  0  0  0
  1  2  2  0
  2  3  1  0
  2  4  1  0
  4  5  1  0
  5  6  1  0
  6  7  1  0
  6  8  1  0
  7  9  1  0
  8 10  1  0
 10 11  1  0
 11 12  1  0
 12 13  1  0
 12 14  1  0
 12 15  2  0
M  END
