
     RDKit          3D

  6  5  0  0  0  0  0  0  0  0999 V2000
  -12.8325   27.1646  -21.9545 O   0  0  0  0  0  0  0  0  0  0  0  0
  -12.3360   26.4862  -21.1848 C   0  0  0  0  0  0  0  0  0  0  0  0
  -11.0048   26.6114  -20.8400 C   0  0  0  0  0  0  0  0  0  0  0  0
  -10.3306   25.4091  -20.5518 C   0  0  0  0  0  0  0  0  0  0  0  0
   -9.6646   24.8185  -20.4118 N   0  0  0  0  0  0  0  0  0  0  0  0
  -12.8169   25.2963  -20.6919 O   0  0  0  0  0  0  0  0  0  0  0  0
  1  2  2  0
  2  3  1  0
  3  4  1  0
  4  5  3  0
  2  6  1  0
M  END
