
     RDKit          3D

 16 15  0  0  0  0  0  0  0  0999 V2000
  -16.5786   36.2950  -19.6813 O   0  0  0  0  0  0  0  0  0  0  0  0
  -17.5426   36.8642  -20.5584 P   0  0  0  0  0  0  0  0  0  0  0  0
  -17.9112   36.0230  -21.6964 O   0  0  0  0  0  0  0  0  0  0  0  0
  -18.7666   37.2942  -19.7794 O   0  0  0  0  0  0  0  0  0  0  0  0
  -16.9017   38.1806  -21.1108 O   0  0  0  0  0  0  0  0  0  0  0  0
  -17.6150   36.0770  -23.1694 P   0  0  0  0  0  0  0  0  0  0  0  0
  -16.2364   35.8860  -23.3541 O   0  0  0  0  0  0  0  0  0  0  0  0
  -18.4168   34.6907  -23.4896 O   0  0  0  0  0  0  0  0  0  0  0  0
  -18.4229   37.0314  -24.0116 O   0  0  0  0  0  0  0  0  0  0  0  0
  -18.8442   33.6156  -22.4694 C   0  0  0  0  0  0  0  0  0  0  0  0
  -19.8600   34.0875  -21.4904 C   0  0  0  0  0  0  0  0  0  0  0  0
  -18.9940   32.3530  -23.0453 C   0  0  0  0  0  0  0  0  0  0  0  0
  -19.7201   33.2047  -20.1916 C   0  0  0  0  0  0  0  0  0  0  0  0
  -18.6378   32.5501  -19.9929 O   0  0  0  0  0  0  0  0  0  0  0  0
  -21.1439   34.0725  -21.7872 O   0  0  0  0  0  0  0  0  0  0  0  0
  -18.3097   31.2058  -22.4624 O   0  0  0  0  0  0  0  0  0  0  0  0
  1  2  1  0
  2  3  1  0
  2  4  2  0
  2  5  1  0
  3  6  1  0
  6  7  1  0
  6  8  1  0
  6  9  2  0
  8 10  1  0
 10 11  1  0
 10 12  1  0
 11 13  1  0
 13 14  1  0
 11 15  1  0
 12 16  1  0
M  END
