
     RDKit          3D

 17 18  0  0  0  0  0  0  0  0999 V2000
  -14.2788   27.4886  -22.5386 O   0  0  0  0  0  0  0  0  0  0  0  0
  -15.4374   28.2713  -22.2444 C   0  0  0  0  0  0  0  0  0  0  0  0
  -16.5189   27.7863  -22.1076 N   0  0  0  0  0  0  0  0  0  0  0  0
  -15.2403   29.6912  -21.8788 N   0  0  0  0  0  0  0  0  0  0  0  0
  -17.5620   28.6780  -21.9396 C   0  0  0  0  0  0  0  0  0  0  0  0
  -16.9596   30.0142  -21.9334 C   0  0  0  0  0  0  0  0  0  0  0  0
  -17.3444   31.2831  -22.0157 C   0  0  0  0  0  0  0  0  0  0  0  0
  -17.9667   31.7973  -21.1064 O   0  0  0  0  0  0  0  0  0  0  0  0
  -16.8525   32.1186  -23.0312 C   0  0  0  0  0  0  0  0  0  0  0  0
  -18.7347   32.9656  -21.4445 C   0  0  0  0  0  0  0  0  0  0  0  0
  -19.6052   33.5666  -20.4119 P   0  0  0  0  0  0  0  0  0  0  0  0
  -16.2538   31.9272  -24.2417 C   0  0  0  0  0  0  0  0  0  0  0  0
  -17.8475   33.2190  -22.7962 C   0  0  0  0  0  0  0  0  0  0  0  0
  -15.0359   32.3576  -24.2172 O   0  0  0  0  0  0  0  0  0  0  0  0
  -18.9174   34.3587  -19.6608 O   0  0  0  0  0  0  0  0  0  0  0  0
  -20.2480   32.3949  -19.6026 O   0  0  0  0  0  0  0  0  0  0  0  0
  -20.7659   34.0807  -21.3412 O   0  0  0  0  0  0  0  0  0  0  0  0
  1  2  2  0
  2  3  1  0
  2  4  1  0
  3  5  1  0
  4  6  1  0
  5  6  2  0
  6  7  1  0
  7  8  1  0
  7  9  2  0
  8 10  1  0
 10 11  1  0
  9 12  1  0
  9 13  1  0
 10 13  1  0
 12 14  2  0
 11 15  1  0
 11 16  1  0
 11 17  2  0
M  END
