
     RDKit          3D

 17 18  0  0  0  0  0  0  0  0999 V2000
  -14.0504   27.7197  -22.5103 O   0  0  0  0  0  0  0  0  0  0  0  0
  -15.4382   27.9209  -21.9393 C   0  0  0  0  0  0  0  0  0  0  0  0
  -15.8258   29.2741  -22.0221 N   0  0  0  0  0  0  0  0  0  0  0  0
  -16.0667   27.1803  -21.2408 N   0  0  0  0  0  0  0  0  0  0  0  0
  -15.1731   30.3076  -22.7398 C   0  0  0  0  0  0  0  0  0  0  0  0
  -16.1402   31.3770  -23.1325 C   0  0  0  0  0  0  0  0  0  0  0  0
  -15.8383   32.0934  -24.2950 C   0  0  0  0  0  0  0  0  0  0  0  0
  -17.2836   31.6786  -22.3912 C   0  0  0  0  0  0  0  0  0  0  0  0
  -17.7766   30.9371  -21.2830 C   0  0  0  0  0  0  0  0  0  0  0  0
  -18.0057   32.5884  -23.1345 C   0  0  0  0  0  0  0  0  0  0  0  0
  -19.1734   31.2202  -21.1198 C   0  0  0  0  0  0  0  0  0  0  0  0
  -17.2353   33.0953  -24.3722 S   0  0  0  0  0  0  0  0  0  0  0  0
  -19.4375   32.9605  -22.7355 C   0  0  0  0  0  0  0  0  0  0  0  0
  -19.6626   32.6244  -21.3821 C   0  0  0  0  0  0  0  0  0  0  0  0
  -20.0612   30.4645  -20.9200 O   0  0  0  0  0  0  0  0  0  0  0  0
  -18.9403   33.5248  -20.3789 O   0  0  0  0  0  0  0  0  0  0  0  0
  -20.9545   33.0587  -20.8701 O   0  0  0  0  0  0  0  0  0  0  0  0
  1  2  2  0
  2  3  1  0
  2  4  1  0
  3  5  1  0
  5  6  1  0
  6  7  2  0
  6  8  1  0
  8  9  1  0
  8 10  2  0
  9 11  1  0
  7 12  1  0
 10 12  1  0
 10 13  1  0
 11 14  1  0
 13 14  1  0
 11 15  2  0
 14 16  1  0
 14 17  1  0
M  END
