
     RDKit          3D

 17 18  0  0  0  0  0  0  0  0999 V2000
  -12.8068   26.9228  -21.4033 C   0  0  0  0  0  0  0  0  0  0  0  0
  -13.9640   27.2030  -21.7243 C   0  0  0  0  0  0  0  0  0  0  0  0
  -11.5626   26.4440  -20.9809 C   0  0  0  0  0  0  0  0  0  0  0  0
  -10.7760   27.1947  -20.3199 C   0  0  0  0  0  0  0  0  0  0  0  0
  -11.2924   25.2281  -21.3387 N   0  0  0  0  0  0  0  0  0  0  0  0
  -15.2131   27.8320  -22.2513 C   0  0  0  0  0  0  0  0  0  0  0  0
   -9.5967   26.3865  -20.0649 C   0  0  0  0  0  0  0  0  0  0  0  0
  -10.0572   24.8443  -20.8945 C   0  0  0  0  0  0  0  0  0  0  0  0
  -16.1542   27.0491  -22.3731 C   0  0  0  0  0  0  0  0  0  0  0  0
  -17.4250   27.6688  -22.7462 C   0  0  0  0  0  0  0  0  0  0  0  0
   -9.4653   23.9248  -21.0106 O   0  0  0  0  0  0  0  0  0  0  0  0
  -18.6202   26.9390  -22.8743 N   0  0  0  0  0  0  0  0  0  0  0  0
  -15.2071   29.1748  -22.4165 C   0  0  0  0  0  0  0  0  0  0  0  0
  -17.4752   28.9445  -22.8060 C   0  0  0  0  0  0  0  0  0  0  0  0
  -19.0187   26.1974  -21.9912 N   0  0  0  0  0  0  0  0  0  0  0  0
  -14.0540   29.9879  -22.2039 F   0  0  0  0  0  0  0  0  0  0  0  0
  -16.4082   29.8162  -22.6725 C   0  0  0  0  0  0  0  0  0  0  0  0
  1  2  3  0
  1  3  1  0
  3  4  1  0
  3  5  2  0
  2  6  1  0
  4  7  1  0
  5  8  1  0
  7  8  1  0
  6  9  2  0
  9 10  1  0
  8 11  2  0
 10 12  1  0
  6 13  1  0
 10 14  2  0
 12 15  2  0
 13 16  1  0
 13 17  2  0
 14 17  1  0
M  END
