
     RDKit          3D

  6  5  0  0  0  0  0  0  0  0999 V2000
  -14.0504   27.7197  -22.5103 O   0  0  0  0  0  0  0  0  0  0  0  0
  -15.4382   27.9209  -21.9393 C   0  0  0  0  0  0  0  0  0  0  0  0
  -16.1800   27.1067  -21.7001 N   0  0  0  0  0  0  0  0  0  0  0  0
  -15.8415   29.4239  -22.1706 C   0  0  0  0  0  0  0  0  0  0  0  0
  -14.9703   30.3871  -22.5144 C   0  0  0  0  0  0  0  0  0  0  0  0
  -13.7489   30.2204  -22.9262 O   0  0  0  0  0  0  0  0  0  0  0  0
  1  2  2  0
  2  3  1  0
  2  4  1  0
  4  5  2  3
  5  6  1  0
M  END
