
     RDKit          3D

 18 17  0  0  0  0  0  0  0  0999 V2000
  -16.5330   36.4167  -19.7044 O   0  0  0  0  0  0  0  0  0  0  0  0
  -17.6450   36.8674  -20.5226 P   0  0  0  0  0  0  0  0  0  0  0  0
  -18.7606   36.9103  -19.8352 O   0  0  0  0  0  0  0  0  0  0  0  0
  -17.7837   35.6464  -21.5623 O   0  0  0  0  0  0  0  0  0  0  0  0
  -17.1958   38.0247  -21.3171 O   0  0  0  0  0  0  0  0  0  0  0  0
  -19.0665   34.8059  -21.5797 P   0  0  0  0  0  0  0  0  0  0  0  0
  -19.3536   34.0308  -20.2946 O   0  0  0  0  0  0  0  0  0  0  0  0
  -18.6564   33.6901  -22.7558 O   0  0  0  0  0  0  0  0  0  0  0  0
  -18.1787   32.3590  -22.5333 C   0  0  0  0  0  0  0  0  0  0  0  0
  -20.3933   35.2620  -22.2217 O   0  0  0  0  0  0  0  0  0  0  0  0
  -18.0419   31.5626  -23.6429 C   0  0  0  0  0  0  0  0  0  0  0  0
  -16.7873   31.1964  -23.8689 C   0  0  0  0  0  0  0  0  0  0  0  0
  -18.9689   30.3639  -23.5833 O   0  0  0  0  0  0  0  0  0  0  0  0
  -16.0946   30.4962  -22.8555 O   0  0  0  0  0  0  0  0  0  0  0  0
  -15.9904   32.5096  -24.1987 C   0  0  0  0  0  0  0  0  0  0  0  0
  -16.0036   29.1305  -22.4215 C   0  0  0  0  0  0  0  0  0  0  0  0
  -14.9271   32.3807  -24.9688 O   0  0  0  0  0  0  0  0  0  0  0  0
  -15.0046   28.6049  -22.3794 O   0  0  0  0  0  0  0  0  0  0  0  0
  1  2  1  0
  2  3  1  0
  2  4  1  0
  2  5  2  0
  4  6  1  0
  6  7  1  0
  6  8  1  0
  8  9  1  0
  6 10  2  0
  9 11  1  0
 11 12  1  0
 11 13  1  0
 12 14  1  0
 12 15  1  0
 14 16  1  0
 15 17  1  0
 16 18  2  0
M  END
