
     RDKit          3D

 18 19  0  0  0  0  0  0  0  0999 V2000
  -12.8068   26.9228  -21.4033 C   0  0  0  0  0  0  0  0  0  0  0  0
  -13.9640   27.2030  -21.7243 C   0  0  0  0  0  0  0  0  0  0  0  0
  -11.5626   26.4440  -20.9809 C   0  0  0  0  0  0  0  0  0  0  0  0
  -10.7760   27.1947  -20.3199 C   0  0  0  0  0  0  0  0  0  0  0  0
  -11.2924   25.2281  -21.3387 C   0  0  0  0  0  0  0  0  0  0  0  0
  -11.8734   24.3279  -22.0325 C   0  0  0  0  0  0  0  0  0  0  0  0
   -9.6092   26.5345  -20.0472 C   0  0  0  0  0  0  0  0  0  0  0  0
   -9.9114   24.7324  -20.9398 C   0  0  0  0  0  0  0  0  0  0  0  0
   -9.1236   25.5632  -20.2500 C   0  0  0  0  0  0  0  0  0  0  0  0
  -14.9443   27.9719  -22.3383 C   0  0  0  0  0  0  0  0  0  0  0  0
  -15.0227   29.3405  -22.3206 C   0  0  0  0  0  0  0  0  0  0  0  0
  -14.0714   30.0862  -22.6222 O   0  0  0  0  0  0  0  0  0  0  0  0
  -16.2900   29.8449  -22.1130 N   0  0  0  0  0  0  0  0  0  0  0  0
  -17.3884   29.2439  -21.8792 C   0  0  0  0  0  0  0  0  0  0  0  0
  -16.3517   31.2070  -21.7800 C   0  0  0  0  0  0  0  0  0  0  0  0
  -18.4792   30.2479  -21.9953 C   0  0  0  0  0  0  0  0  0  0  0  0
  -17.6608   31.5117  -21.8046 O   0  0  0  0  0  0  0  0  0  0  0  0
  -19.7161   30.2721  -21.9039 O   0  0  0  0  0  0  0  0  0  0  0  0
  1  2  3  0
  1  3  1  0
  3  4  1  0
  3  5  2  0
  5  6  1  0
  4  7  2  0
  5  8  1  0
  7  9  1  0
  8  9  2  0
  2 10  1  0
 10 11  1  0
 11 12  2  0
 11 13  1  0
 13 14  1  0
 13 15  1  0
 14 16  1  0
 15 17  1  0
 16 17  1  0
 16 18  2  0
M  END
