
     RDKit          3D

 19 20  0  0  0  0  0  0  0  0999 V2000
  -14.0504   27.7197  -22.5103 O   0  0  0  0  0  0  0  0  0  0  0  0
  -15.4382   27.9209  -21.9393 C   0  0  0  0  0  0  0  0  0  0  0  0
  -15.8258   29.2741  -22.0221 N   0  0  0  0  0  0  0  0  0  0  0  0
  -16.0667   27.1803  -21.2408 N   0  0  0  0  0  0  0  0  0  0  0  0
  -15.1731   30.3076  -22.7398 C   0  0  0  0  0  0  0  0  0  0  0  0
  -16.1402   31.3770  -23.1325 C   0  0  0  0  0  0  0  0  0  0  0  0
  -15.8383   32.0934  -24.2950 C   0  0  0  0  0  0  0  0  0  0  0  0
  -17.2836   31.6786  -22.3912 C   0  0  0  0  0  0  0  0  0  0  0  0
  -17.7766   30.9371  -21.2830 C   0  0  0  0  0  0  0  0  0  0  0  0
  -18.0057   32.5884  -23.1345 C   0  0  0  0  0  0  0  0  0  0  0  0
  -19.1734   31.2202  -21.1198 C   0  0  0  0  0  0  0  0  0  0  0  0
  -17.2353   33.0953  -24.3722 S   0  0  0  0  0  0  0  0  0  0  0  0
  -19.4375   32.9605  -22.7355 C   0  0  0  0  0  0  0  0  0  0  0  0
  -16.7318   34.5818  -24.2227 N   0  0  0  0  0  0  0  0  0  0  0  0
  -17.8549   33.0440  -25.7155 O   0  0  0  0  0  0  0  0  0  0  0  0
  -19.7587   30.8905  -19.9474 O   0  0  0  0  0  0  0  0  0  0  0  0
  -19.7477   34.2868  -22.9560 O   0  0  0  0  0  0  0  0  0  0  0  0
  -19.7480   32.5278  -21.3863 C   0  0  0  0  0  0  0  0  0  0  0  0
  -19.0946   33.4498  -20.4637 O   0  0  0  0  0  0  0  0  0  0  0  0
  1  2  2  0
  2  3  1  0
  2  4  1  0
  3  5  1  0
  5  6  1  0
  6  7  2  0
  6  8  1  0
  8  9  1  0
  8 10  2  0
  9 11  1  0
  7 12  1  0
 10 12  1  0
 10 13  1  0
 12 14  1  0
 12 15  1  0
 11 16  1  0
 13 17  1  0
 11 18  1  0
 13 18  1  0
 18 19  1  0
M  END
