
     RDKit          3D

  6  5  0  0  0  0  0  0  0  0999 V2000
  -14.4726   28.0649  -22.4895 O   0  0  0  0  0  0  0  0  0  0  0  0
  -15.7210   28.7170  -22.1683 C   0  0  0  0  0  0  0  0  0  0  0  0
  -16.7283   28.1157  -22.0003 N   0  0  0  0  0  0  0  0  0  0  0  0
  -15.6985   30.1798  -22.3959 C   0  0  0  0  0  0  0  0  0  0  0  0
  -14.8775   30.7633  -23.2071 O   0  0  0  0  0  0  0  0  0  0  0  0
  -16.3457   30.8256  -21.3954 N   0  0  0  0  0  0  0  0  0  0  0  0
  1  2  2  0
  2  3  1  0
  2  4  1  0
  4  5  2  0
  4  6  1  0
M  END
