
     RDKit          3D

 19 20  0  0  0  0  0  0  0  0999 V2000
  -12.7418   26.8530  -22.2493 C   0  0  0  0  0  0  0  0  0  0  0  0
  -12.1725   26.2459  -21.3062 C   0  0  0  0  0  0  0  0  0  0  0  0
  -10.7667   26.3242  -20.9914 C   0  0  0  0  0  0  0  0  0  0  0  0
  -12.0580   27.8269  -22.8324 C   0  0  0  0  0  0  0  0  0  0  0  0
  -10.1334   25.4212  -20.2085 C   0  0  0  0  0  0  0  0  0  0  0  0
  -10.2490   27.3909  -21.5443 C   0  0  0  0  0  0  0  0  0  0  0  0
  -12.7631   28.8295  -23.5373 C   0  0  0  0  0  0  0  0  0  0  0  0
  -11.0109   28.4469  -22.1458 C   0  0  0  0  0  0  0  0  0  0  0  0
   -9.4744   24.8283  -19.9687 N   0  0  0  0  0  0  0  0  0  0  0  0
  -13.7707   29.6127  -22.8027 C   0  0  0  0  0  0  0  0  0  0  0  0
  -13.6349   30.8996  -22.8215 C   0  0  0  0  0  0  0  0  0  0  0  0
  -12.7095   31.3290  -21.9599 C   0  0  0  0  0  0  0  0  0  0  0  0
  -14.2816   31.5151  -23.8664 C   0  0  0  0  0  0  0  0  0  0  0  0
  -15.6933   31.5971  -23.8374 C   0  0  0  0  0  0  0  0  0  0  0  0
  -16.4287   31.1108  -23.0295 C   0  0  0  0  0  0  0  0  0  0  0  0
  -17.9116   31.2202  -23.1625 C   0  0  0  0  0  0  0  0  0  0  0  0
  -16.1833   32.2457  -25.0426 C   0  0  0  0  0  0  0  0  0  0  0  0
  -17.6087   32.3900  -25.1739 C   0  0  0  0  0  0  0  0  0  0  0  0
  -18.4203   31.7978  -24.2497 C   0  0  0  0  0  0  0  0  0  0  0  0
  1  2  2  0
  2  3  1  0
  1  4  1  0
  3  5  1  0
  3  6  2  0
  4  7  1  0
  4  8  2  0
  6  8  1  0
  5  9  3  0
  7 10  1  0
 10 11  2  3
 11 12  1  0
 11 13  1  0
 13 14  1  0
 14 15  2  0
 15 16  1  0
 14 17  1  0
 17 18  2  0
 16 19  2  0
 18 19  1  0
M  END
