
     RDKit          3D

  6  5  0  0  0  0  0  0  0  0999 V2000
  -14.2788   27.4886  -22.5386 O   0  0  0  0  0  0  0  0  0  0  0  0
  -15.5470   27.9212  -21.9401 C   0  0  0  0  0  0  0  0  0  0  0  0
  -16.4127   27.2546  -21.6663 O   0  0  0  0  0  0  0  0  0  0  0  0
  -15.6666   29.4460  -21.9028 C   0  0  0  0  0  0  0  0  0  0  0  0
  -14.8138   30.2462  -22.4641 C   0  0  0  0  0  0  0  0  0  0  0  0
  -13.7516   30.0390  -23.1970 O   0  0  0  0  0  0  0  0  0  0  0  0
  1  2  2  0
  2  3  1  0
  2  4  1  0
  4  5  2  3
  5  6  1  0
M  END
