
     RDKit          3D

 20 21  0  0  0  0  0  0  0  0999 V2000
  -12.8325   27.1646  -21.9545 C   0  0  0  0  0  0  0  0  0  0  0  0
  -12.4521   26.4852  -20.9820 C   0  0  0  0  0  0  0  0  0  0  0  0
  -11.8234   25.6350  -20.1062 C   0  0  0  0  0  0  0  0  0  0  0  0
  -13.5494   27.8426  -22.7851 C   0  0  0  0  0  0  0  0  0  0  0  0
  -10.4826   26.0870  -19.8446 C   0  0  0  0  0  0  0  0  0  0  0  0
   -9.5958   25.1303  -19.9468 C   0  0  0  0  0  0  0  0  0  0  0  0
  -14.7282   28.4859  -22.0658 C   0  0  0  0  0  0  0  0  0  0  0  0
  -15.7275   27.6845  -21.6269 C   0  0  0  0  0  0  0  0  0  0  0  0
  -10.4336   26.6408  -18.7374 C   0  0  0  0  0  0  0  0  0  0  0  0
  -15.0058   29.8905  -22.5009 C   0  0  0  0  0  0  0  0  0  0  0  0
  -16.9200   28.2972  -21.2566 C   0  0  0  0  0  0  0  0  0  0  0  0
  -16.2055   30.4524  -22.1464 C   0  0  0  0  0  0  0  0  0  0  0  0
  -17.1754   29.6375  -21.5215 C   0  0  0  0  0  0  0  0  0  0  0  0
  -18.4811   30.3168  -21.2251 C   0  0  0  0  0  0  0  0  0  0  0  0
  -18.6671   31.6348  -21.6198 C   0  0  0  0  0  0  0  0  0  0  0  0
  -19.2053   32.5298  -20.7722 C   0  0  0  0  0  0  0  0  0  0  0  0
  -18.2992   31.9285  -22.8626 C   0  0  0  0  0  0  0  0  0  0  0  0
  -19.5973   32.3425  -19.6716 O   0  0  0  0  0  0  0  0  0  0  0  0
  -16.8164   31.4112  -23.1801 C   0  0  0  0  0  0  0  0  0  0  0  0
  -19.9333   33.5598  -21.3555 O   0  0  0  0  0  0  0  0  0  0  0  0
  1  2  3  0
  2  3  1  0
  1  4  1  0
  3  5  1  0
  5  6  1  0
  4  7  1  0
  7  8  2  0
  5  9  1  0
  7 10  1  0
  8 11  1  0
 10 12  2  0
 11 13  2  0
 12 13  1  0
 13 14  1  0
 14 15  1  0
 15 16  1  0
 15 17  2  0
 16 18  1  0
 12 19  1  0
 17 19  1  0
 16 20  2  0
M  END
