
     RDKit          3D

  7  6  0  0  0  0  0  0  0  0999 V2000
  -12.8325   27.1646  -21.9545 O   0  0  0  0  0  0  0  0  0  0  0  0
  -12.3360   26.4862  -21.1848 C   0  0  0  0  0  0  0  0  0  0  0  0
  -11.0048   26.6114  -20.8400 C   0  0  0  0  0  0  0  0  0  0  0  0
  -10.3306   25.4091  -20.5518 C   0  0  0  0  0  0  0  0  0  0  0  0
  -10.3678   27.7530  -20.8972 C   0  0  0  0  0  0  0  0  0  0  0  0
  -13.0690   25.6092  -20.6113 N   0  0  0  0  0  0  0  0  0  0  0  0
  -10.2305   24.5081  -20.5332 N   0  0  0  0  0  0  0  0  0  0  0  0
  1  2  2  0
  2  3  1  0
  3  4  1  0
  3  5  2  0
  2  6  1  0
  4  7  3  0
M  END
