
     RDKit          3D

 21 20  0  0  0  0  0  0  0  0999 V2000
  -13.9219   27.5101  -22.4405 O   0  0  0  0  0  0  0  0  0  0  0  0
  -15.3187   28.0285  -22.2010 C   0  0  0  0  0  0  0  0  0  0  0  0
  -16.2408   27.3361  -22.0889 N   0  0  0  0  0  0  0  0  0  0  0  0
  -15.3832   29.5150  -22.0285 N   0  0  0  0  0  0  0  0  0  0  0  0
  -15.5335   30.4211  -22.9177 C   0  0  0  0  0  0  0  0  0  0  0  0
  -16.8229   31.0936  -23.0273 C   0  0  0  0  0  0  0  0  0  0  0  0
  -16.9247   32.1316  -24.0444 C   0  0  0  0  0  0  0  0  0  0  0  0
  -17.9629   30.3003  -22.7525 C   0  0  0  0  0  0  0  0  0  0  0  0
  -15.8122   32.7097  -24.3209 O   0  0  0  0  0  0  0  0  0  0  0  0
  -18.9657   31.0308  -21.9816 O   0  0  0  0  0  0  0  0  0  0  0  0
  -17.9733   33.1911  -23.6688 C   0  0  0  0  0  0  0  0  0  0  0  0
  -18.6705   33.2596  -22.6413 O   0  0  0  0  0  0  0  0  0  0  0  0
  -17.8961   34.3610  -24.4559 O   0  0  0  0  0  0  0  0  0  0  0  0
  -17.2879   35.7017  -24.2311 P   0  0  0  0  0  0  0  0  0  0  0  0
  -16.0112   35.4979  -23.8049 O   0  0  0  0  0  0  0  0  0  0  0  0
  -17.3237   36.3437  -25.6751 O   0  0  0  0  0  0  0  0  0  0  0  0
  -18.1566   36.5622  -23.3375 O   0  0  0  0  0  0  0  0  0  0  0  0
  -17.7685   37.2149  -21.9649 P   0  0  0  0  0  0  0  0  0  0  0  0
  -18.0081   38.4551  -21.8873 O   0  0  0  0  0  0  0  0  0  0  0  0
  -18.8063   36.4659  -20.8729 O   0  0  0  0  0  0  0  0  0  0  0  0
  -16.3175   36.6992  -21.7839 O   0  0  0  0  0  0  0  0  0  0  0  0
  1  2  2  0
  2  3  1  0
  2  4  1  0
  4  5  1  0
  5  6  1  0
  6  7  1  0
  6  8  1  0
  7  9  1  0
  8 10  1  0
  7 11  1  0
 11 12  2  0
 11 13  1  0
 13 14  1  0
 14 15  1  0
 14 16  2  0
 14 17  1  0
 17 18  1  0
 18 19  2  0
 18 20  1  0
 18 21  1  0
M  END
