
     RDKit          3D

 22 23  0  0  0  0  0  0  0  0999 V2000
  -21.1282   33.5673  -20.6255 O   0  0  0  0  0  0  0  0  0  0  0  0
  -19.7247   33.1597  -20.7288 P   0  0  0  0  0  0  0  0  0  0  0  0
  -19.2782   32.9479  -22.0286 O   0  0  0  0  0  0  0  0  0  0  0  0
  -18.5120   31.8287  -22.5913 C   0  0  0  0  0  0  0  0  0  0  0  0
  -18.0137   31.9393  -23.8594 C   0  0  0  0  0  0  0  0  0  0  0  0
  -16.6152   31.9179  -24.1620 C   0  0  0  0  0  0  0  0  0  0  0  0
  -19.6209   31.7463  -20.0145 O   0  0  0  0  0  0  0  0  0  0  0  0
  -15.8913   31.0533  -23.4792 O   0  0  0  0  0  0  0  0  0  0  0  0
  -18.7523   30.8801  -24.6831 O   0  0  0  0  0  0  0  0  0  0  0  0
  -16.1344   33.2965  -24.0647 C   0  0  0  0  0  0  0  0  0  0  0  0
  -18.5769   34.0309  -20.1209 O   0  0  0  0  0  0  0  0  0  0  0  0
  -15.0726   33.5250  -25.0248 O   0  0  0  0  0  0  0  0  0  0  0  0
  -17.2024   34.3034  -24.4662 C   0  0  0  0  0  0  0  0  0  0  0  0
  -18.2190   35.4321  -20.6256 P   0  0  0  0  0  0  0  0  0  0  0  0
  -18.4128   33.3424  -24.5274 O   0  0  0  0  0  0  0  0  0  0  0  0
  -17.4041   35.3967  -23.7076 C   0  0  0  0  0  0  0  0  0  0  0  0
  -17.8102   35.2797  -21.9792 O   0  0  0  0  0  0  0  0  0  0  0  0
  -16.1557   30.0054  -22.4351 C   0  0  0  0  0  0  0  0  0  0  0  0
  -15.3167   29.0383  -22.3746 O   0  0  0  0  0  0  0  0  0  0  0  0
  -15.6085   27.6247  -21.9359 C   0  0  0  0  0  0  0  0  0  0  0  0
  -17.2958   35.8041  -19.5563 O   0  0  0  0  0  0  0  0  0  0  0  0
  -19.4106   36.4192  -20.6526 O   0  0  0  0  0  0  0  0  0  0  0  0
  1  2  1  0
  2  3  1  0
  3  4  1  0
  4  5  1  0
  5  6  1  0
  2  7  2  0
  6  8  1  0
  5  9  1  0
  6 10  1  0
  2 11  1  0
 10 12  1  0
 10 13  1  0
 11 14  1  0
  5 15  1  0
 13 15  1  0
 13 16  1  0
 14 17  1  0
 16 17  1  0
  8 18  1  0
 18 19  1  0
 19 20  1  0
 14 21  1  0
 14 22  2  0
M  END
