
     RDKit          3D

 22 23  0  0  0  0  0  0  0  0999 V2000
  -16.5330   36.4167  -19.7044 O   0  0  0  0  0  0  0  0  0  0  0  0
  -17.5659   36.8740  -20.5901 P   0  0  0  0  0  0  0  0  0  0  0  0
  -17.8577   35.9571  -21.6801 O   0  0  0  0  0  0  0  0  0  0  0  0
  -17.1585   38.2282  -21.1739 O   0  0  0  0  0  0  0  0  0  0  0  0
  -17.3725   35.8953  -23.0585 P   0  0  0  0  0  0  0  0  0  0  0  0
  -17.9169   34.7441  -23.8753 O   0  0  0  0  0  0  0  0  0  0  0  0
  -18.9614   37.1154  -19.7609 O   0  0  0  0  0  0  0  0  0  0  0  0
  -17.4946   34.3467  -25.2412 C   0  0  0  0  0  0  0  0  0  0  0  0
  -17.8173   37.1665  -23.8294 O   0  0  0  0  0  0  0  0  0  0  0  0
  -16.1819   34.0442  -25.4239 C   0  0  0  0  0  0  0  0  0  0  0  0
  -18.6000   33.2591  -25.6539 C   0  0  0  0  0  0  0  0  0  0  0  0
  -18.0630   32.1532  -25.9349 C   0  0  0  0  0  0  0  0  0  0  0  0
  -15.8676   35.8626  -23.0785 O   0  0  0  0  0  0  0  0  0  0  0  0
  -15.5710   34.5804  -26.5038 O   0  0  0  0  0  0  0  0  0  0  0  0
  -19.4545   33.0405  -24.4179 O   0  0  0  0  0  0  0  0  0  0  0  0
  -16.4328   32.4400  -25.7630 C   0  0  0  0  0  0  0  0  0  0  0  0
  -18.3493   31.0023  -25.1444 O   0  0  0  0  0  0  0  0  0  0  0  0
  -18.9106   31.6659  -23.8723 C   0  0  0  0  0  0  0  0  0  0  0  0
  -18.0133   31.7663  -22.7029 C   0  0  0  0  0  0  0  0  0  0  0  0
  -17.3217   30.8594  -22.5326 O   0  0  0  0  0  0  0  0  0  0  0  0
  -18.6477   32.3257  -21.3890 C   0  0  0  0  0  0  0  0  0  0  0  0
  -19.9235   31.8010  -21.0767 O   0  0  0  0  0  0  0  0  0  0  0  0
  1  2  1  0
  2  3  1  0
  2  4  2  0
  3  5  1  0
  5  6  1  0
  2  7  1  0
  6  8  1  0
  5  9  2  0
  8 10  1  0
  8 11  1  0
 11 12  1  0
  5 13  1  0
 10 14  1  0
 11 15  1  0
 10 16  1  0
 12 16  1  0
 12 17  1  0
 15 18  1  0
 17 18  1  0
 18 19  1  0
 19 20  1  0
 19 21  1  0
 21 22  1  0
M  END
