
     RDKit          3D

  7  7  0  0  0  0  0  0  0  0999 V2000
  -13.3913   26.4705  -29.3895 N   0  0  0  0  0  0  0  0  0  0  0  0
  -14.6922   26.7908  -29.2683 C   0  0  0  0  0  0  0  0  0  0  0  0
  -15.1842   27.9338  -29.5482 N   0  0  0  0  0  0  0  0  0  0  0  0
  -15.6555   25.8397  -28.8403 N   0  0  0  0  0  0  0  0  0  0  0  0
  -16.9355   26.3589  -28.9327 C   0  0  0  0  0  0  0  0  0  0  0  0
  -16.7272   27.7074  -29.5039 N   0  0  0  0  0  0  0  0  0  0  0  0
  -18.1627   25.8373  -28.8303 C   0  0  0  0  0  0  0  0  0  0  0  0
  1  2  1  0
  2  3  2  0
  2  4  1  0
  4  5  1  0
  3  6  1  0
  5  6  2  0
  5  7  1  0
M  END
