
     RDKit          3D

 10 10  0  0  0  0  0  0  0  0999 V2000
  -14.3086   27.4348  -23.0117 O   0  0  0  0  0  0  0  0  0  0  0  0
  -15.3347   27.8047  -22.0259 C   0  0  0  0  0  0  0  0  0  0  0  0
  -15.6072   29.2681  -22.2638 C   0  0  0  0  0  0  0  0  0  0  0  0
  -14.6957   30.0499  -22.7281 O   0  0  0  0  0  0  0  0  0  0  0  0
  -16.7512   29.7696  -21.7829 N   0  0  0  0  0  0  0  0  0  0  0  0
  -17.3619   30.7703  -22.4229 C   0  0  0  0  0  0  0  0  0  0  0  0
  -17.8714   30.7693  -23.5579 C   0  0  0  0  0  0  0  0  0  0  0  0
  -17.5390   32.1081  -21.8259 C   0  0  0  0  0  0  0  0  0  0  0  0
  -18.4726   32.0028  -23.9569 C   0  0  0  0  0  0  0  0  0  0  0  0
  -18.3389   32.7712  -22.8218 N   0  0  0  0  0  0  0  0  0  0  0  0
  1  2  1  0
  2  3  1  0
  3  4  2  0
  3  5  1  0
  5  6  1  0
  6  7  2  0
  6  8  1  0
  7  9  1  0
  8 10  1  0
  9 10  2  0
M  END
