
     RDKit          3D

 12 11  0  0  0  0  0  0  0  0999 V2000
  -14.3086   27.4348  -23.0117 O   0  0  0  0  0  0  0  0  0  0  0  0
  -15.3347   27.8047  -22.0259 C   0  0  0  0  0  0  0  0  0  0  0  0
  -15.9785   27.2136  -21.4280 O   0  0  0  0  0  0  0  0  0  0  0  0
  -15.5921   29.3486  -22.1282 C   0  0  0  0  0  0  0  0  0  0  0  0
  -14.8130   30.1504  -22.8501 O   0  0  0  0  0  0  0  0  0  0  0  0
  -16.7434   29.8327  -21.5919 N   0  0  0  0  0  0  0  0  0  0  0  0
  -16.9594   31.1821  -21.5190 C   0  0  0  0  0  0  0  0  0  0  0  0
  -17.5695   31.7542  -22.6641 C   0  0  0  0  0  0  0  0  0  0  0  0
  -18.5100   32.6359  -22.4418 C   0  0  0  0  0  0  0  0  0  0  0  0
  -19.4163   32.4038  -21.2583 C   0  0  0  0  0  0  0  0  0  0  0  0
  -19.7621   31.2151  -20.9670 O   0  0  0  0  0  0  0  0  0  0  0  0
  -19.5433   33.2570  -20.2802 O   0  0  0  0  0  0  0  0  0  0  0  0
  1  2  1  0
  2  3  2  0
  2  4  1  0
  4  5  2  0
  4  6  1  0
  6  7  1  0
  7  8  1  0
  8  9  1  0
  9 10  1  0
 10 11  2  0
 10 12  1  0
M  END
