
     RDKit          3D

 13 12  0  0  0  0  0  0  0  0999 V2000
  -16.0133   36.3771  -20.8298 O   0  0  0  0  0  0  0  0  0  0  0  0
  -16.9670   36.3718  -21.7799 P   0  0  0  0  0  0  0  0  0  0  0  0
  -18.1970   36.9765  -21.5036 O   0  0  0  0  0  0  0  0  0  0  0  0
  -17.1881   34.9430  -22.2789 O   0  0  0  0  0  0  0  0  0  0  0  0
  -17.1082   34.4200  -23.7308 P   0  0  0  0  0  0  0  0  0  0  0  0
  -16.6444   37.0116  -23.0473 O   0  0  0  0  0  0  0  0  0  0  0  0
  -15.7863   33.8392  -23.8946 O   0  0  0  0  0  0  0  0  0  0  0  0
  -17.3935   35.4914  -24.7540 O   0  0  0  0  0  0  0  0  0  0  0  0
  -18.1961   33.2583  -23.8742 O   0  0  0  0  0  0  0  0  0  0  0  0
  -18.7953   32.6313  -22.6869 C   0  0  0  0  0  0  0  0  0  0  0  0
  -18.3490   31.3953  -22.3334 C   0  0  0  0  0  0  0  0  0  0  0  0
  -19.0802   30.5240  -22.6096 O   0  0  0  0  0  0  0  0  0  0  0  0
  -17.3199   31.2681  -21.6215 O   0  0  0  0  0  0  0  0  0  0  0  0
  1  2  1  0
  2  3  1  0
  2  4  1  0
  4  5  1  0
  2  6  2  0
  5  7  1  0
  5  8  2  0
  5  9  1  0
  9 10  1  0
 10 11  1  0
 11 12  2  0
 11 13  1  0
M  END
