
     RDKit          3D

 14 13  0  0  0  0  0  0  0  0999 V2000
  -14.9536   28.1563  -22.8768 O   0  0  0  0  0  0  0  0  0  0  0  0
  -15.6760   28.8209  -22.0329 C   0  0  0  0  0  0  0  0  0  0  0  0
  -15.8462   30.1377  -22.2398 N   0  0  0  0  0  0  0  0  0  0  0  0
  -15.0775   30.8461  -23.1154 C   0  0  0  0  0  0  0  0  0  0  0  0
  -15.9349   31.8291  -23.9242 C   0  0  0  0  0  0  0  0  0  0  0  0
  -17.3205   31.9237  -23.5641 C   0  0  0  0  0  0  0  0  0  0  0  0
  -17.9680   33.0608  -23.1834 N   0  0  0  0  0  0  0  0  0  0  0  0
  -18.0596   30.8301  -23.6687 O   0  0  0  0  0  0  0  0  0  0  0  0
  -19.3273   33.1390  -22.5050 C   0  0  0  0  0  0  0  0  0  0  0  0
  -19.7333   34.4680  -22.2729 C   0  0  0  0  0  0  0  0  0  0  0  0
  -19.2551   32.2185  -21.1780 C   0  0  0  0  0  0  0  0  0  0  0  0
  -20.1748   31.3744  -20.9674 O   0  0  0  0  0  0  0  0  0  0  0  0
  -16.4270   28.1348  -21.2183 O   0  0  0  0  0  0  0  0  0  0  0  0
  -18.4060   32.3958  -20.3042 O   0  0  0  0  0  0  0  0  0  0  0  0
  1  2  2  0
  2  3  1  0
  3  4  1  0
  4  5  1  0
  5  6  1  0
  6  7  1  0
  6  8  2  0
  7  9  1  0
  9 10  1  0
  9 11  1  0
 11 12  2  0
  2 13  1  0
 11 14  1  0
M  END
