
     RDKit          3D

 14 13  0  0  0  0  0  0  0  0999 V2000
  -13.6551   27.2141  -21.9847 O   0  0  0  0  0  0  0  0  0  0  0  0
  -14.9791   27.5904  -21.9680 C   0  0  0  0  0  0  0  0  0  0  0  0
  -15.1340   28.9527  -22.4804 N   0  0  0  0  0  0  0  0  0  0  0  0
  -16.3306   29.6299  -22.3268 C   0  0  0  0  0  0  0  0  0  0  0  0
  -16.1805   30.9835  -22.8901 C   0  0  0  0  0  0  0  0  0  0  0  0
  -15.3652   31.1812  -23.9997 O   0  0  0  0  0  0  0  0  0  0  0  0
  -17.6186   31.5026  -23.3738 C   0  0  0  0  0  0  0  0  0  0  0  0
  -18.4771   30.5770  -23.1861 O   0  0  0  0  0  0  0  0  0  0  0  0
  -18.0934   32.7402  -22.7311 C   0  0  0  0  0  0  0  0  0  0  0  0
  -18.9442   32.6571  -21.6882 O   0  0  0  0  0  0  0  0  0  0  0  0
  -19.3852   33.4203  -20.4384 P   0  0  0  0  0  0  0  0  0  0  0  0
  -19.8892   34.6588  -20.9427 O   0  0  0  0  0  0  0  0  0  0  0  0
  -20.3470   32.5944  -19.6865 O   0  0  0  0  0  0  0  0  0  0  0  0
  -18.1643   33.6453  -19.5631 O   0  0  0  0  0  0  0  0  0  0  0  0
  1  2  2  0
  2  3  1  0
  3  4  1  0
  4  5  1  0
  5  6  1  0
  5  7  1  0
  7  8  1  0
  7  9  1  0
  9 10  1  0
 10 11  1  0
 11 12  1  0
 11 13  2  0
 11 14  1  0
M  END
