
     RDKit          3D

 15 14  0  0  0  0  0  0  0  0999 V2000
  -16.4291   36.2244  -19.6467 O   0  0  0  0  0  0  0  0  0  0  0  0
  -17.2706   36.5963  -20.6992 P   0  0  0  0  0  0  0  0  0  0  0  0
  -16.6868   37.7042  -21.3962 O   0  0  0  0  0  0  0  0  0  0  0  0
  -17.2928   35.5093  -21.7619 O   0  0  0  0  0  0  0  0  0  0  0  0
  -18.4918   34.6129  -22.0848 C   0  0  0  0  0  0  0  0  0  0  0  0
  -18.6186   33.5769  -21.1452 C   0  0  0  0  0  0  0  0  0  0  0  0
  -19.5082   33.8331  -20.0324 O   0  0  0  0  0  0  0  0  0  0  0  0
  -18.1803   32.5267  -21.2658 O   0  0  0  0  0  0  0  0  0  0  0  0
  -18.7575   36.8427  -20.3056 O   0  0  0  0  0  0  0  0  0  0  0  0
  -18.6828   34.5005  -23.4663 C   0  0  0  0  0  0  0  0  0  0  0  0
  -17.4570   34.7200  -24.2255 C   0  0  0  0  0  0  0  0  0  0  0  0
  -17.1219   35.7656  -24.8875 O   0  0  0  0  0  0  0  0  0  0  0  0
  -16.4162   33.7627  -24.0915 N   0  0  0  0  0  0  0  0  0  0  0  0
  -15.1574   33.9244  -24.7806 C   0  0  0  0  0  0  0  0  0  0  0  0
  -14.7162   35.2454  -24.7822 O   0  0  0  0  0  0  0  0  0  0  0  0
  1  2  1  0
  2  3  1  0
  2  4  1  0
  4  5  1  0
  5  6  1  0
  6  7  1  0
  6  8  2  0
  2  9  2  0
  5 10  1  0
 10 11  1  0
 11 12  2  0
 11 13  1  0
 13 14  1  0
 14 15  1  0
M  END
