
     RDKit          3D

 17 18  0  0  0  0  0  0  0  0999 V2000
  -14.3947   27.9017  -22.6194 O   0  0  0  0  0  0  0  0  0  0  0  0
  -15.6632   28.2481  -21.9437 C   0  0  0  0  0  0  0  0  0  0  0  0
  -16.4219   27.4139  -21.6219 O   0  0  0  0  0  0  0  0  0  0  0  0
  -16.0705   29.6688  -22.1672 C   0  0  0  0  0  0  0  0  0  0  0  0
  -17.1649   30.0298  -22.1723 C   0  0  0  0  0  0  0  0  0  0  0  0
  -15.0047   30.4211  -22.8542 C   0  0  0  0  0  0  0  0  0  0  0  0
  -13.6643   30.0671  -22.9784 O   0  0  0  0  0  0  0  0  0  0  0  0
  -15.3583   31.7246  -23.2707 C   0  0  0  0  0  0  0  0  0  0  0  0
  -16.6076   32.1539  -23.1823 C   0  0  0  0  0  0  0  0  0  0  0  0
  -17.5546   31.3611  -22.5802 C   0  0  0  0  0  0  0  0  0  0  0  0
  -16.9897   33.3906  -23.5089 C   0  0  0  0  0  0  0  0  0  0  0  0
  -18.6885   31.8462  -22.8600 N   0  0  0  0  0  0  0  0  0  0  0  0
  -19.9528   31.3902  -22.2278 O   0  0  0  0  0  0  0  0  0  0  0  0
  -16.3579   34.3376  -24.3500 C   0  0  0  0  0  0  0  0  0  0  0  0
  -16.0069   35.4415  -24.1844 O   0  0  0  0  0  0  0  0  0  0  0  0
  -15.7744   33.6843  -25.4647 O   0  0  0  0  0  0  0  0  0  0  0  0
  -18.4487   33.1238  -23.8226 C   0  0  0  0  0  0  0  0  0  0  0  0
  1  2  2  0
  2  3  1  0
  2  4  1  0
  4  5  1  0
  4  6  2  0
  6  7  1  0
  6  8  1  0
  8  9  2  0
  5 10  1  0
  9 10  1  0
  9 11  1  0
 10 12  2  0
 12 13  1  0
 11 14  1  0
 14 15  1  0
 14 16  2  0
 11 17  1  0
 12 17  1  0
M  CHG  2  12   1  13  -1
M  END
