
     RDKit          3D

 18 17  0  0  0  0  0  0  0  0999 V2000
  -20.1834   31.2226  -20.8955 O   0  0  0  0  0  0  0  0  0  0  0  0
  -19.5807   32.4553  -20.7890 P   0  0  0  0  0  0  0  0  0  0  0  0
  -18.4150   32.5227  -21.7401 O   0  0  0  0  0  0  0  0  0  0  0  0
  -18.2457   33.1956  -23.0257 C   0  0  0  0  0  0  0  0  0  0  0  0
  -17.4929   32.5500  -23.9669 C   0  0  0  0  0  0  0  0  0  0  0  0
  -16.5941   33.1300  -24.6677 C   0  0  0  0  0  0  0  0  0  0  0  0
  -19.2436   32.9370  -19.5040 O   0  0  0  0  0  0  0  0  0  0  0  0
  -17.6343   31.0285  -24.1384 C   0  0  0  0  0  0  0  0  0  0  0  0
  -20.5965   33.6519  -21.3400 O   0  0  0  0  0  0  0  0  0  0  0  0
  -15.7640   32.4795  -25.6005 O   0  0  0  0  0  0  0  0  0  0  0  0
  -18.8495   30.7075  -24.1227 O   0  0  0  0  0  0  0  0  0  0  0  0
  -16.2723   34.6206  -24.5054 C   0  0  0  0  0  0  0  0  0  0  0  0
  -15.3577   35.0836  -24.3649 O   0  0  0  0  0  0  0  0  0  0  0  0
  -17.4141   35.4002  -24.7120 N   0  0  0  0  0  0  0  0  0  0  0  0
  -17.3218   36.7575  -24.4575 C   0  0  0  0  0  0  0  0  0  0  0  0
  -18.4875   37.3671  -25.2626 C   0  0  0  0  0  0  0  0  0  0  0  0
  -19.2715   38.2478  -24.6696 O   0  0  0  0  0  0  0  0  0  0  0  0
  -18.6159   37.0987  -26.4372 O   0  0  0  0  0  0  0  0  0  0  0  0
  1  2  2  0
  2  3  1  0
  3  4  1  0
  4  5  1  0
  5  6  2  3
  2  7  1  0
  5  8  1  0
  2  9  1  0
  6 10  1  0
  8 11  1  0
  6 12  1  0
 12 13  2  0
 12 14  1  0
 14 15  1  0
 15 16  1  0
 16 17  1  0
 16 18  2  0
M  END
