
     RDKit          3D

 18 18  0  0  0  0  0  0  0  0999 V2000
  -20.3137   31.1024  -20.9100 O   0  0  0  0  0  0  0  0  0  0  0  0
  -19.7282   32.4050  -20.6891 P   0  0  0  0  0  0  0  0  0  0  0  0
  -18.5428   32.5140  -21.6122 O   0  0  0  0  0  0  0  0  0  0  0  0
  -18.5002   32.3026  -23.0398 C   0  0  0  0  0  0  0  0  0  0  0  0
  -17.9313   33.3345  -23.7432 C   0  0  0  0  0  0  0  0  0  0  0  0
  -18.6841   34.2223  -24.2994 O   0  0  0  0  0  0  0  0  0  0  0  0
  -18.4433   35.6414  -24.1781 C   0  0  0  0  0  0  0  0  0  0  0  0
  -20.7463   33.4768  -21.2117 O   0  0  0  0  0  0  0  0  0  0  0  0
  -16.6844   33.4611  -24.3430 C   0  0  0  0  0  0  0  0  0  0  0  0
  -16.1131   34.7663  -24.6291 C   0  0  0  0  0  0  0  0  0  0  0  0
  -19.1367   32.6828  -19.3636 O   0  0  0  0  0  0  0  0  0  0  0  0
  -18.3654   30.8852  -23.3416 C   0  0  0  0  0  0  0  0  0  0  0  0
  -17.0457   35.8759  -24.6663 C   0  0  0  0  0  0  0  0  0  0  0  0
  -19.4125   36.4780  -25.0606 C   0  0  0  0  0  0  0  0  0  0  0  0
  -18.8740   37.2118  -25.9489 O   0  0  0  0  0  0  0  0  0  0  0  0
  -14.8630   34.8047  -25.1806 O   0  0  0  0  0  0  0  0  0  0  0  0
  -20.6165   36.2029  -24.9174 O   0  0  0  0  0  0  0  0  0  0  0  0
  -15.8098   32.3616  -24.1897 O   0  0  0  0  0  0  0  0  0  0  0  0
  1  2  2  0
  2  3  1  0
  3  4  1  0
  4  5  1  0
  5  6  1  0
  6  7  1  0
  2  8  1  0
  5  9  2  0
  9 10  1  0
  2 11  1  0
  4 12  1  0
  7 13  1  0
 10 13  2  0
  7 14  1  0
 14 15  2  0
 10 16  1  0
 14 17  1  0
  9 18  1  0
M  END
