
     RDKit          3D

 18 17  0  0  0  0  0  0  0  0999 V2000
  -21.1416   33.9380  -20.8499 O   0  0  0  0  0  0  0  0  0  0  0  0
  -19.7636   33.5264  -20.5914 P   0  0  0  0  0  0  0  0  0  0  0  0
  -18.9269   34.5840  -20.6676 O   0  0  0  0  0  0  0  0  0  0  0  0
  -19.3777   32.4052  -21.7419 O   0  0  0  0  0  0  0  0  0  0  0  0
  -19.7966   32.6909  -19.2604 O   0  0  0  0  0  0  0  0  0  0  0  0
  -18.9182   36.1910  -21.3817 P   0  0  0  0  0  0  0  0  0  0  0  0
  -18.1699   32.3863  -22.5576 C   0  0  0  0  0  0  0  0  0  0  0  0
  -18.0678   31.1147  -23.2819 C   0  0  0  0  0  0  0  0  0  0  0  0
  -19.1747   37.0399  -20.3765 O   0  0  0  0  0  0  0  0  0  0  0  0
  -16.6350   30.6754  -23.3226 C   0  0  0  0  0  0  0  0  0  0  0  0
  -15.7683   31.3699  -23.9915 O   0  0  0  0  0  0  0  0  0  0  0  0
  -19.6575   36.0916  -22.5547 O   0  0  0  0  0  0  0  0  0  0  0  0
  -16.2594   29.5505  -22.7479 N   0  0  0  0  0  0  0  0  0  0  0  0
  -17.3175   36.5182  -21.7312 O   0  0  0  0  0  0  0  0  0  0  0  0
  -17.0381   28.6938  -22.0419 O   0  0  0  0  0  0  0  0  0  0  0  0
  -14.8707   29.1984  -22.6775 O   0  0  0  0  0  0  0  0  0  0  0  0
  -14.5892   27.8186  -22.3244 C   0  0  0  0  0  0  0  0  0  0  0  0
  -18.7580   31.1509  -24.4770 O   0  0  0  0  0  0  0  0  0  0  0  0
  1  2  2  0
  2  3  1  0
  2  4  1  0
  2  5  1  0
  3  6  1  0
  4  7  1  0
  7  8  1  0
  6  9  1  0
  8 10  1  0
 10 11  2  0
  6 12  2  0
 10 13  1  0
  6 14  1  0
 13 15  1  0
 13 16  1  0
 16 17  1  0
  8 18  1  0
M  END
