
     RDKit          3D

  4  3  0  0  0  0  0  0  0  0999 V2000
  -13.7023   26.9181  -29.4956 O   0  0  0  0  0  0  0  0  0  0  0  0
  -15.0043   26.8068  -29.1938 C   0  0  0  0  0  0  0  0  0  0  0  0
  -15.5517   25.7334  -28.9606 O   0  0  0  0  0  0  0  0  0  0  0  0
  -15.8547   27.8879  -29.6811 N   0  0  0  0  0  0  0  0  0  0  0  0
  1  2  1  0
  2  3  2  0
  2  4  1  0
M  END
