
     RDKit          3D

  4  3  0  0  0  0  0  0  0  0999 V2000
  -13.3913   26.4705  -29.3895 N   0  0  0  0  0  0  0  0  0  0  0  0
  -14.6922   26.7908  -29.2683 N   0  0  0  0  0  0  0  0  0  0  0  0
  -15.2782   27.8853  -29.5414 N   0  0  0  0  0  0  0  0  0  0  0  0
  -15.6609   26.0249  -28.6604 N   0  0  0  0  0  0  0  0  0  0  0  0
  1  2  1  0
  2  3  1  0
  2  4  1  0
M  END
