
     RDKit          3D

 19 19  0  0  0  0  0  0  0  0999 V2000
  -13.5851   27.1653  -22.3389 O   0  0  0  0  0  0  0  0  0  0  0  0
  -14.6401   27.1406  -21.8939 C   0  0  0  0  0  0  0  0  0  0  0  0
  -15.5069   28.3654  -22.2920 C   0  0  0  0  0  0  0  0  0  0  0  0
  -14.9634   29.5950  -22.4673 O   0  0  0  0  0  0  0  0  0  0  0  0
  -15.8061   30.7207  -22.6722 C   0  0  0  0  0  0  0  0  0  0  0  0
  -15.5668   31.4467  -23.7142 C   0  0  0  0  0  0  0  0  0  0  0  0
  -16.8142   30.8107  -21.8419 C   0  0  0  0  0  0  0  0  0  0  0  0
  -14.3688   31.1376  -24.5110 O   0  0  0  0  0  0  0  0  0  0  0  0
  -16.3465   32.3668  -24.1132 C   0  0  0  0  0  0  0  0  0  0  0  0
  -17.7394   31.8757  -22.2252 C   0  0  0  0  0  0  0  0  0  0  0  0
  -18.9055   32.1708  -21.3809 C   0  0  0  0  0  0  0  0  0  0  0  0
  -17.4546   32.6916  -23.3515 C   0  0  0  0  0  0  0  0  0  0  0  0
  -15.9756   33.3030  -25.3673 C   0  0  0  0  0  0  0  0  0  0  0  0
  -16.4485   33.0094  -26.5648 C   0  0  0  0  0  0  0  0  0  0  0  0
  -16.3877   33.9139  -27.6314 C   0  0  0  0  0  0  0  0  0  0  0  0
  -16.0936   33.6555  -28.7278 O   0  0  0  0  0  0  0  0  0  0  0  0
  -19.0337   33.2749  -20.6965 O   0  0  0  0  0  0  0  0  0  0  0  0
  -19.9145   31.4380  -21.3998 O   0  0  0  0  0  0  0  0  0  0  0  0
  -16.9779   35.1284  -27.3644 N   0  0  0  0  0  0  0  0  0  0  0  0
  1  2  2  0
  2  3  1  0
  3  4  1  0
  4  5  1  0
  5  6  1  0
  5  7  2  0
  6  8  1  0
  6  9  2  0
  7 10  1  0
 10 11  1  0
  9 12  1  0
 10 12  2  0
  9 13  1  0
 13 14  1  0
 14 15  1  0
 15 16  2  0
 11 17  1  0
 11 18  2  0
 15 19  1  0
M  END
