
     RDKit          3D

  5  4  0  0  0  0  0  0  0  0999 V2000
  -14.1057   27.3608  -22.7905 O   0  0  0  0  0  0  0  0  0  0  0  0
  -15.0080   27.5879  -21.7702 C   0  0  0  0  0  0  0  0  0  0  0  0
  -15.6872   28.8848  -22.1768 C   0  0  0  0  0  0  0  0  0  0  0  0
  -17.0566   28.8810  -22.4121 O   0  0  0  0  0  0  0  0  0  0  0  0
  -15.2033   30.0707  -22.0740 O   0  0  0  0  0  0  0  0  0  0  0  0
  1  2  1  0
  2  3  1  0
  3  4  2  0
  3  5  1  0
M  END
