
     RDKit          3D

 19 20  0  0  0  0  0  0  0  0999 V2000
  -16.0133   36.3771  -20.8298 O   0  0  0  0  0  0  0  0  0  0  0  0
  -16.9670   36.3718  -21.7799 P   0  0  0  0  0  0  0  0  0  0  0  0
  -17.1869   34.9606  -22.2894 O   0  0  0  0  0  0  0  0  0  0  0  0
  -18.0152   34.3501  -23.3981 C   0  0  0  0  0  0  0  0  0  0  0  0
  -18.3745   36.8100  -21.0870 O   0  0  0  0  0  0  0  0  0  0  0  0
  -17.2590   33.9791  -24.4529 C   0  0  0  0  0  0  0  0  0  0  0  0
  -16.8170   37.3539  -22.7827 O   0  0  0  0  0  0  0  0  0  0  0  0
  -19.3587   34.0103  -23.1584 C   0  0  0  0  0  0  0  0  0  0  0  0
  -19.9751   33.4849  -24.3622 C   0  0  0  0  0  0  0  0  0  0  0  0
  -20.0854   34.2396  -21.7958 C   0  0  0  0  0  0  0  0  0  0  0  0
  -19.1666   33.2320  -25.2408 C   0  0  0  0  0  0  0  0  0  0  0  0
  -17.8858   33.4930  -25.4676 C   0  0  0  0  0  0  0  0  0  0  0  0
  -19.9628   32.5943  -26.5552 C   0  0  0  0  0  0  0  0  0  0  0  0
  -19.7896   33.2093  -20.8720 O   0  0  0  0  0  0  0  0  0  0  0  0
  -20.0525   31.3380  -26.7159 O   0  0  0  0  0  0  0  0  0  0  0  0
  -19.8830   33.2834  -27.7432 C   0  0  0  0  0  0  0  0  0  0  0  0
  -20.7156   31.0528  -27.7904 C   0  0  0  0  0  0  0  0  0  0  0  0
  -20.6481   32.3505  -28.5851 C   0  0  0  0  0  0  0  0  0  0  0  0
  -18.8385   33.0089  -19.8097 C   0  0  0  0  0  0  0  0  0  0  0  0
  1  2  1  0
  2  3  1  0
  3  4  1  0
  2  5  1  0
  4  6  1  0
  2  7  2  0
  4  8  2  0
  8  9  1  0
  8 10  1  0
  9 11  2  0
  6 12  2  0
 11 12  1  0
 11 13  1  0
 10 14  1  0
 13 15  1  0
 13 16  2  0
 15 17  1  0
 16 18  1  0
 17 18  2  0
 14 19  1  0
M  END
