
     RDKit          3D

 20 21  0  0  0  0  0  0  0  0999 V2000
  -14.3086   27.4348  -23.0117 O   0  0  0  0  0  0  0  0  0  0  0  0
  -15.3347   27.8047  -22.0259 C   0  0  0  0  0  0  0  0  0  0  0  0
  -15.9432   27.1183  -21.4306 O   0  0  0  0  0  0  0  0  0  0  0  0
  -15.8154   29.2681  -22.2265 C   0  0  0  0  0  0  0  0  0  0  0  0
  -16.9950   29.6179  -22.1286 N   0  0  0  0  0  0  0  0  0  0  0  0
  -14.8558   30.2543  -22.7518 C   0  0  0  0  0  0  0  0  0  0  0  0
  -13.5388   30.0076  -23.0385 O   0  0  0  0  0  0  0  0  0  0  0  0
  -17.5835   30.7171  -22.3170 C   0  0  0  0  0  0  0  0  0  0  0  0
  -15.3955   31.4836  -23.3196 C   0  0  0  0  0  0  0  0  0  0  0  0
  -16.7741   31.7249  -23.0346 C   0  0  0  0  0  0  0  0  0  0  0  0
  -17.4024   32.8235  -23.3711 N   0  0  0  0  0  0  0  0  0  0  0  0
  -18.6062   33.1927  -22.8191 C   0  0  0  0  0  0  0  0  0  0  0  0
  -18.4484   34.5247  -21.9165 O   0  0  0  0  0  0  0  0  0  0  0  0
  -16.8144   33.6813  -24.5108 C   0  0  0  0  0  0  0  0  0  0  0  0
  -16.6809   34.9612  -24.4133 C   0  0  0  0  0  0  0  0  0  0  0  0
  -19.1154   32.3452  -21.6410 C   0  0  0  0  0  0  0  0  0  0  0  0
  -15.7068   35.4995  -24.0412 O   0  0  0  0  0  0  0  0  0  0  0  0
  -18.9166   31.0890  -22.0908 C   0  0  0  0  0  0  0  0  0  0  0  0
  -17.8288   35.7569  -24.5923 O   0  0  0  0  0  0  0  0  0  0  0  0
  -18.8374   32.6440  -20.4257 O   0  0  0  0  0  0  0  0  0  0  0  0
  1  2  2  0
  2  3  1  0
  2  4  1  0
  4  5  2  0
  4  6  1  0
  6  7  1  0
  5  8  1  0
  6  9  2  0
  8 10  2  0
  9 10  1  0
 10 11  1  0
 11 12  1  0
 12 13  1  0
 11 14  1  0
 14 15  1  0
 12 16  1  0
 15 17  1  0
  8 18  1  0
 16 18  1  0
 15 19  2  0
 16 20  1  0
M  END
