
     RDKit          3D

 21 22  0  0  0  0  0  0  0  0999 V2000
  -13.5851   27.1653  -22.3389 O   0  0  0  0  0  0  0  0  0  0  0  0
  -14.6401   27.1406  -21.8939 C   0  0  0  0  0  0  0  0  0  0  0  0
  -15.5069   28.3654  -22.2920 C   0  0  0  0  0  0  0  0  0  0  0  0
  -14.9634   29.5950  -22.4673 O   0  0  0  0  0  0  0  0  0  0  0  0
  -15.8061   30.7207  -22.6722 C   0  0  0  0  0  0  0  0  0  0  0  0
  -15.5668   31.4467  -23.7142 C   0  0  0  0  0  0  0  0  0  0  0  0
  -16.8142   30.8107  -21.8419 C   0  0  0  0  0  0  0  0  0  0  0  0
  -17.7109   31.7416  -22.2040 C   0  0  0  0  0  0  0  0  0  0  0  0
  -18.9499   31.9357  -21.3360 C   0  0  0  0  0  0  0  0  0  0  0  0
  -20.0266   31.4587  -21.4394 O   0  0  0  0  0  0  0  0  0  0  0  0
  -18.8081   32.7545  -20.2871 O   0  0  0  0  0  0  0  0  0  0  0  0
  -16.3550   32.4782  -24.0471 C   0  0  0  0  0  0  0  0  0  0  0  0
  -16.0696   33.4087  -25.1196 N   0  0  0  0  0  0  0  0  0  0  0  0
  -17.3419   32.6680  -23.3089 C   0  0  0  0  0  0  0  0  0  0  0  0
  -16.9490   34.1408  -25.8651 C   0  0  0  0  0  0  0  0  0  0  0  0
  -17.0747   35.4016  -25.5629 C   0  0  0  0  0  0  0  0  0  0  0  0
  -17.6231   33.5847  -26.9699 C   0  0  0  0  0  0  0  0  0  0  0  0
  -18.5788   34.3076  -27.5861 C   0  0  0  0  0  0  0  0  0  0  0  0
  -19.2910   33.5584  -28.6073 F   0  0  0  0  0  0  0  0  0  0  0  0
  -18.8072   35.5929  -27.3653 C   0  0  0  0  0  0  0  0  0  0  0  0
  -18.0989   36.2696  -26.4020 C   0  0  0  0  0  0  0  0  0  0  0  0
  1  2  2  0
  2  3  1  0
  3  4  1  0
  4  5  1  0
  5  6  1  0
  5  7  2  0
  7  8  1  0
  8  9  1  0
  9 10  2  0
  9 11  1  0
  6 12  2  0
 12 13  1  0
  8 14  2  0
 12 14  1  0
 13 15  1  0
 15 16  1  0
 15 17  2  0
 17 18  1  0
 18 19  1  0
 18 20  2  0
 16 21  2  0
 20 21  1  0
M  END
