
     RDKit          3D

 21 21  0  0  0  0  0  0  0  0999 V2000
  -16.0133   36.3771  -20.8298 O   0  0  0  0  0  0  0  0  0  0  0  0
  -17.3685   36.6696  -20.0796 P   0  0  0  0  0  0  0  0  0  0  0  0
  -18.4544   35.8983  -20.8435 O   0  0  0  0  0  0  0  0  0  0  0  0
  -17.8376   38.1013  -20.2378 O   0  0  0  0  0  0  0  0  0  0  0  0
  -16.9911   36.1930  -18.7581 O   0  0  0  0  0  0  0  0  0  0  0  0
  -18.3449   34.4849  -21.3800 C   0  0  0  0  0  0  0  0  0  0  0  0
  -18.4584   34.5635  -22.7143 C   0  0  0  0  0  0  0  0  0  0  0  0
  -19.3628   33.6554  -20.6802 C   0  0  0  0  0  0  0  0  0  0  0  0
  -19.2503   32.3767  -20.9385 C   0  0  0  0  0  0  0  0  0  0  0  0
  -18.1299   33.3093  -23.3264 O   0  0  0  0  0  0  0  0  0  0  0  0
  -17.5638   33.0885  -24.5818 C   0  0  0  0  0  0  0  0  0  0  0  0
  -20.6120   34.1107  -20.6093 O   0  0  0  0  0  0  0  0  0  0  0  0
  -20.3947   31.6040  -21.2099 O   0  0  0  0  0  0  0  0  0  0  0  0
  -16.2224   33.1520  -24.5749 C   0  0  0  0  0  0  0  0  0  0  0  0
  -18.4154   32.7681  -25.6446 C   0  0  0  0  0  0  0  0  0  0  0  0
  -18.1652   31.7892  -21.2252 O   0  0  0  0  0  0  0  0  0  0  0  0
  -15.3225   33.5222  -23.4957 C   0  0  0  0  0  0  0  0  0  0  0  0
  -14.2164   32.8097  -23.5137 O   0  0  0  0  0  0  0  0  0  0  0  0
  -18.0517   32.5372  -26.8055 C   0  0  0  0  0  0  0  0  0  0  0  0
  -16.6326   32.6219  -27.0260 C   0  0  0  0  0  0  0  0  0  0  0  0
  -15.7446   32.9922  -25.9283 C   0  0  0  0  0  0  0  0  0  0  0  0
  1  2  1  0
  2  3  1  0
  2  4  2  0
  2  5  1  0
  3  6  1  0
  6  7  1  0
  6  8  1  0
  8  9  1  0
  7 10  1  0
 10 11  1  0
  8 12  1  0
  9 13  2  0
 11 14  1  0
 11 15  2  0
  9 16  1  0
 14 17  1  0
 17 18  1  0
 15 19  1  0
 19 20  2  0
 14 21  2  0
 20 21  1  0
M  END
