
     RDKit          3D

 21 22  0  0  0  0  0  0  0  0999 V2000
  -20.3137   31.1024  -20.9100 O   0  0  0  0  0  0  0  0  0  0  0  0
  -19.7282   32.4050  -20.6891 P   0  0  0  0  0  0  0  0  0  0  0  0
  -20.7060   33.3805  -21.2661 O   0  0  0  0  0  0  0  0  0  0  0  0
  -19.2660   32.7247  -19.3994 O   0  0  0  0  0  0  0  0  0  0  0  0
  -18.5082   32.3396  -21.7486 O   0  0  0  0  0  0  0  0  0  0  0  0
  -18.3036   31.6970  -22.8665 C   0  0  0  0  0  0  0  0  0  0  0  0
  -16.9394   31.4320  -23.2882 C   0  0  0  0  0  0  0  0  0  0  0  0
  -19.1730   31.8867  -23.8586 C   0  0  0  0  0  0  0  0  0  0  0  0
  -16.2412   30.3001  -22.7374 N   0  0  0  0  0  0  0  0  0  0  0  0
  -18.6056   31.6373  -25.1812 C   0  0  0  0  0  0  0  0  0  0  0  0
  -18.7721   32.5872  -26.2817 C   0  0  0  0  0  0  0  0  0  0  0  0
  -17.7535   33.5329  -26.4823 N   0  0  0  0  0  0  0  0  0  0  0  0
  -16.5269   29.1969  -22.2900 C   0  0  0  0  0  0  0  0  0  0  0  0
  -17.5982   34.6661  -25.8105 C   0  0  0  0  0  0  0  0  0  0  0  0
  -18.3809   35.1057  -24.8808 O   0  0  0  0  0  0  0  0  0  0  0  0
  -16.8357   33.3327  -27.6173 C   0  0  0  0  0  0  0  0  0  0  0  0
  -15.8540   34.3927  -27.7688 C   0  0  0  0  0  0  0  0  0  0  0  0
  -15.4808   28.2977  -21.8694 N   0  0  0  0  0  0  0  0  0  0  0  0
  -17.1288   31.7456  -24.7430 C   0  0  0  0  0  0  0  0  0  0  0  0
  -17.5135   28.8418  -21.7518 O   0  0  0  0  0  0  0  0  0  0  0  0
  -16.2213   35.5174  -27.1615 C   0  0  0  0  0  0  0  0  0  0  0  0
  1  2  2  0
  2  3  1  0
  2  4  1  0
  2  5  1  0
  5  6  1  0
  6  7  1  0
  6  8  1  0
  7  9  1  0
  8 10  1  0
 10 11  1  0
 11 12  1  0
  9 13  1  0
 12 14  1  0
 14 15  2  0
 12 16  1  0
 16 17  1  0
 13 18  1  0
  7 19  1  0
 10 19  1  0
 13 20  2  0
 14 21  1  0
 17 21  1  0
M  END
