
     RDKit          3D

 21 21  0  0  0  0  0  0  0  0999 V2000
  -14.9536   28.1563  -22.8768 O   0  0  0  0  0  0  0  0  0  0  0  0
  -15.4593   28.4044  -21.6954 C   0  0  0  0  0  0  0  0  0  0  0  0
  -15.9546   27.5521  -21.0077 O   0  0  0  0  0  0  0  0  0  0  0  0
  -15.9950   29.8045  -21.6707 C   0  0  0  0  0  0  0  0  0  0  0  0
  -16.0460   30.5291  -22.9583 C   0  0  0  0  0  0  0  0  0  0  0  0
  -17.1610   31.0017  -23.3928 C   0  0  0  0  0  0  0  0  0  0  0  0
  -17.1466   32.2427  -24.1516 N   0  0  0  0  0  0  0  0  0  0  0  0
  -18.3098   30.6417  -22.9293 O   0  0  0  0  0  0  0  0  0  0  0  0
  -18.2973   32.8357  -24.7771 C   0  0  0  0  0  0  0  0  0  0  0  0
  -18.4255   34.1289  -24.3310 C   0  0  0  0  0  0  0  0  0  0  0  0
  -17.2863   34.8809  -24.0564 C   0  0  0  0  0  0  0  0  0  0  0  0
  -19.3184   34.1120  -23.0598 O   0  0  0  0  0  0  0  0  0  0  0  0
  -18.7298   34.3998  -21.8921 C   0  0  0  0  0  0  0  0  0  0  0  0
  -18.2370   35.5308  -21.6985 O   0  0  0  0  0  0  0  0  0  0  0  0
  -17.1985   36.1789  -24.5663 O   0  0  0  0  0  0  0  0  0  0  0  0
  -19.3370   33.7286  -20.7452 C   0  0  0  0  0  0  0  0  0  0  0  0
  -20.0748   32.6726  -20.9529 O   0  0  0  0  0  0  0  0  0  0  0  0
  -18.9585   33.9936  -19.5282 O   0  0  0  0  0  0  0  0  0  0  0  0
  -15.9931   34.1132  -24.5047 C   0  0  0  0  0  0  0  0  0  0  0  0
  -15.9712   34.1727  -25.8282 O   0  0  0  0  0  0  0  0  0  0  0  0
  -15.9221   32.7690  -24.0838 C   0  0  0  0  0  0  0  0  0  0  0  0
  1  2  2  0
  2  3  1  0
  2  4  1  0
  4  5  1  0
  5  6  1  0
  6  7  1  0
  6  8  2  0
  7  9  1  0
  9 10  1  0
 10 11  1  0
 10 12  1  0
 12 13  1  0
 13 14  2  0
 11 15  1  0
 13 16  1  0
 16 17  1  0
 16 18  2  0
 11 19  1  0
 19 20  1  0
  7 21  1  0
 19 21  1  0
M  END
