
     RDKit          3D

 21 21  0  0  0  0  0  0  0  0999 V2000
  -16.0133   36.3771  -20.8298 O   0  0  0  0  0  0  0  0  0  0  0  0
  -16.9670   36.3718  -21.7799 P   0  0  0  0  0  0  0  0  0  0  0  0
  -18.1970   36.9765  -21.5036 O   0  0  0  0  0  0  0  0  0  0  0  0
  -17.1881   34.9430  -22.2789 O   0  0  0  0  0  0  0  0  0  0  0  0
  -17.1082   34.4200  -23.7308 P   0  0  0  0  0  0  0  0  0  0  0  0
  -16.6444   37.0116  -23.0473 O   0  0  0  0  0  0  0  0  0  0  0  0
  -15.7863   33.8392  -23.8946 O   0  0  0  0  0  0  0  0  0  0  0  0
  -17.3935   35.4914  -24.7540 O   0  0  0  0  0  0  0  0  0  0  0  0
  -18.3416   33.3742  -23.7878 O   0  0  0  0  0  0  0  0  0  0  0  0
  -18.1747   31.9935  -23.3860 C   0  0  0  0  0  0  0  0  0  0  0  0
  -18.1888   31.5975  -22.0558 C   0  0  0  0  0  0  0  0  0  0  0  0
  -17.1119   31.2571  -24.0222 C   0  0  0  0  0  0  0  0  0  0  0  0
  -19.4590   32.1478  -21.3772 C   0  0  0  0  0  0  0  0  0  0  0  0
  -17.1036   31.9881  -21.5543 O   0  0  0  0  0  0  0  0  0  0  0  0
  -20.4354   31.4843  -20.9395 O   0  0  0  0  0  0  0  0  0  0  0  0
  -19.4721   33.3987  -20.9381 O   0  0  0  0  0  0  0  0  0  0  0  0
  -16.3308   30.8039  -22.8956 C   0  0  0  0  0  0  0  0  0  0  0  0
  -16.1696   31.0374  -21.6867 C   0  0  0  0  0  0  0  0  0  0  0  0
  -15.5652   29.5105  -23.1853 O   0  0  0  0  0  0  0  0  0  0  0  0
  -15.7317   28.4892  -22.1653 C   0  0  0  0  0  0  0  0  0  0  0  0
  -14.7740   27.4644  -22.4193 O   0  0  0  0  0  0  0  0  0  0  0  0
  1  2  1  0
  2  3  1  0
  2  4  1  0
  4  5  1  0
  2  6  2  0
  5  7  1  0
  5  8  2  0
  5  9  1  0
  9 10  1  0
 10 11  1  0
 10 12  1  0
 11 13  1  0
 11 14  1  0
 13 15  2  0
 13 16  1  0
 12 17  1  0
 14 18  1  0
 17 18  2  0
 17 19  1  0
 19 20  1  0
 20 21  1  0
M  END
