
     RDKit          3D

 21 22  0  0  0  0  0  0  0  0999 V2000
  -20.3137   31.1024  -20.9100 O   0  0  0  0  0  0  0  0  0  0  0  0
  -19.7282   32.4050  -20.6891 P   0  0  0  0  0  0  0  0  0  0  0  0
  -20.7060   33.3805  -21.2661 O   0  0  0  0  0  0  0  0  0  0  0  0
  -19.2660   32.7247  -19.3994 O   0  0  0  0  0  0  0  0  0  0  0  0
  -18.5082   32.3396  -21.7486 O   0  0  0  0  0  0  0  0  0  0  0  0
  -18.3036   31.6970  -22.8665 C   0  0  0  0  0  0  0  0  0  0  0  0
  -16.9394   31.4320  -23.2882 C   0  0  0  0  0  0  0  0  0  0  0  0
  -19.1730   31.8867  -23.8586 C   0  0  0  0  0  0  0  0  0  0  0  0
  -18.7231   31.5249  -25.1862 C   0  0  0  0  0  0  0  0  0  0  0  0
  -17.1814   31.6686  -24.8848 C   0  0  0  0  0  0  0  0  0  0  0  0
  -16.4403   30.1396  -23.0491 N   0  0  0  0  0  0  0  0  0  0  0  0
  -16.4987   32.7721  -25.3522 C   0  0  0  0  0  0  0  0  0  0  0  0
  -17.0626   33.4711  -26.4346 C   0  0  0  0  0  0  0  0  0  0  0  0
  -15.4001   29.8808  -22.2227 C   0  0  0  0  0  0  0  0  0  0  0  0
  -16.2000   33.7277  -24.2638 O   0  0  0  0  0  0  0  0  0  0  0  0
  -16.4509   34.6824  -26.8475 C   0  0  0  0  0  0  0  0  0  0  0  0
  -15.1863   28.4954  -21.9530 C   0  0  0  0  0  0  0  0  0  0  0  0
  -16.0920   35.0762  -24.6065 C   0  0  0  0  0  0  0  0  0  0  0  0
  -16.6937   35.5714  -25.7500 C   0  0  0  0  0  0  0  0  0  0  0  0
  -15.0742   34.5215  -27.2096 O   0  0  0  0  0  0  0  0  0  0  0  0
  -17.3314   36.5700  -25.9081 O   0  0  0  0  0  0  0  0  0  0  0  0
  1  2  2  0
  2  3  1  0
  2  4  1  0
  2  5  1  0
  5  6  1  0
  6  7  1  0
  6  8  1  0
  8  9  1  0
  7 10  1  0
  9 10  1  0
  7 11  1  0
 10 12  1  0
 12 13  1  0
 11 14  1  0
 12 15  1  0
 13 16  1  0
 14 17  1  0
 15 18  1  0
 16 19  1  0
 18 19  1  0
 16 20  1  0
 19 21  2  0
M  END
