
     RDKit          3D

 11 10  0  0  0  0  0  0  0  0999 V2000
  -15.8083   32.7177  -28.8896 C   0  0  0  0  0  0  0  0  0  0  0  0
  -16.6043   33.3666  -27.9255 C   0  0  0  0  0  0  0  0  0  0  0  0
  -15.1228   33.2549  -29.8372 O   0  0  0  0  0  0  0  0  0  0  0  0
  -15.6546   31.4594  -28.7490 O   0  0  0  0  0  0  0  0  0  0  0  0
  -16.9576   32.6824  -26.7639 C   0  0  0  0  0  0  0  0  0  0  0  0
  -18.3134   32.8943  -26.3237 N   0  0  0  0  0  0  0  0  0  0  0  0
  -16.0663   32.2940  -25.9508 O   0  0  0  0  0  0  0  0  0  0  0  0
  -18.8115   32.1291  -25.1761 C   0  0  0  0  0  0  0  0  0  0  0  0
  -18.4401   32.5578  -23.9455 C   0  0  0  0  0  0  0  0  0  0  0  0
  -18.0135   33.7929  -23.8033 O   0  0  0  0  0  0  0  0  0  0  0  0
  -18.6592   31.8496  -22.8750 O   0  0  0  0  0  0  0  0  0  0  0  0
  1  2  1  0
  1  3  2  0
  1  4  1  0
  2  5  1  0
  5  6  1  0
  5  7  2  0
  6  8  1  0
  8  9  1  0
  9 10  2  0
  9 11  1  0
M  END
