
     RDKit          3D

 16 16  0  0  0  0  0  0  0  0999 V2000
  -14.7852   31.5926  -24.1597 N   0  0  0  0  0  0  0  0  0  0  0  0
  -15.3924   30.8150  -23.3107 C   0  0  0  0  0  0  0  0  0  0  0  0
  -15.3886   32.8554  -24.4898 C   0  0  0  0  0  0  0  0  0  0  0  0
  -14.8368   29.7127  -22.8037 O   0  0  0  0  0  0  0  0  0  0  0  0
  -16.6612   33.0931  -24.3308 C   0  0  0  0  0  0  0  0  0  0  0  0
  -17.4175   32.0940  -23.6466 C   0  0  0  0  0  0  0  0  0  0  0  0
  -17.3288   34.3297  -24.8499 C   0  0  0  0  0  0  0  0  0  0  0  0
  -18.8029   32.2239  -23.3439 O   0  0  0  0  0  0  0  0  0  0  0  0
  -16.8435   30.9520  -23.0695 C   0  0  0  0  0  0  0  0  0  0  0  0
  -17.3091   34.4211  -26.2115 N   0  0  0  0  0  0  0  0  0  0  0  0
  -17.5331   29.9986  -22.3743 O   0  0  0  0  0  0  0  0  0  0  0  0
  -16.6402   33.5410  -27.0175 C   0  0  0  0  0  0  0  0  0  0  0  0
  -18.0613   35.5352  -26.7359 C   0  0  0  0  0  0  0  0  0  0  0  0
  -16.2260   34.2075  -28.1647 O   0  0  0  0  0  0  0  0  0  0  0  0
  -16.6537   32.3498  -26.8536 O   0  0  0  0  0  0  0  0  0  0  0  0
  -15.6609   33.3305  -29.0223 C   0  0  0  0  0  0  0  0  0  0  0  0
  1  2  1  0
  1  3  1  0
  2  4  2  0
  3  5  2  0
  5  6  1  0
  5  7  1  0
  6  8  1  0
  2  9  1  0
  6  9  2  0
  7 10  1  0
  9 11  1  0
 10 12  1  0
 10 13  1  0
 12 14  1  0
 12 15  2  0
 14 16  1  0
M  END
