
     RDKit          3D

 11 11  0  0  0  0  0  0  0  0999 V2000
  -15.7417   33.3081  -28.9290 O   0  0  0  0  0  0  0  0  0  0  0  0
  -16.5260   33.7411  -27.9574 C   0  0  0  0  0  0  0  0  0  0  0  0
  -16.3523   35.0055  -27.4599 C   0  0  0  0  0  0  0  0  0  0  0  0
  -17.7145   33.1524  -27.5628 C   0  0  0  0  0  0  0  0  0  0  0  0
  -18.3454   33.6919  -26.4655 C   0  0  0  0  0  0  0  0  0  0  0  0
  -18.0720   34.9127  -25.9153 C   0  0  0  0  0  0  0  0  0  0  0  0
  -15.1583   35.6569  -27.9811 F   0  0  0  0  0  0  0  0  0  0  0  0
  -16.9087   35.5471  -26.4629 C   0  0  0  0  0  0  0  0  0  0  0  0
  -18.8590   35.4468  -24.8049 C   0  0  0  0  0  0  0  0  0  0  0  0
  -18.5038   36.4473  -24.1743 O   0  0  0  0  0  0  0  0  0  0  0  0
  -19.7129   34.6132  -24.1975 O   0  0  0  0  0  0  0  0  0  0  0  0
  1  2  1  0
  2  3  1  0
  2  4  2  0
  4  5  1  0
  5  6  2  0
  3  7  1  0
  3  8  2  0
  6  8  1  0
  6  9  1  0
  9 10  2  0
  9 11  1  0
M  END
