
     RDKit          3D

 16 17  0  0  0  0  0  0  0  0999 V2000
  -17.5932   30.1573  -22.6492 N   0  0  0  0  0  0  0  0  0  0  0  0
  -16.3211   30.0927  -22.7467 C   0  0  0  0  0  0  0  0  0  0  0  0
  -15.7274   31.1384  -23.4350 N   0  0  0  0  0  0  0  0  0  0  0  0
  -15.6388   29.1529  -21.9796 N   0  0  0  0  0  0  0  0  0  0  0  0
  -16.3118   31.9980  -24.1685 C   0  0  0  0  0  0  0  0  0  0  0  0
  -18.3278   31.0740  -23.3815 C   0  0  0  0  0  0  0  0  0  0  0  0
  -17.6593   31.9731  -24.1552 N   0  0  0  0  0  0  0  0  0  0  0  0
  -15.6756   32.8040  -24.8696 O   0  0  0  0  0  0  0  0  0  0  0  0
  -19.5767   30.9541  -23.2930 O   0  0  0  0  0  0  0  0  0  0  0  0
  -18.5579   32.9601  -24.8560 C   0  0  0  0  0  0  0  0  0  0  0  0
  -18.3731   34.2496  -24.4003 C   0  0  0  0  0  0  0  0  0  0  0  0
  -18.1982   32.4689  -26.3235 C   0  0  0  0  0  0  0  0  0  0  0  0
  -18.1953   33.7155  -27.2334 C   0  0  0  0  0  0  0  0  0  0  0  0
  -18.1701   35.3002  -25.3311 C   0  0  0  0  0  0  0  0  0  0  0  0
  -17.6318   36.4278  -24.8447 N   0  0  0  0  0  0  0  0  0  0  0  0
  -17.3238   34.7226  -26.4597 C   0  0  0  0  0  0  0  0  0  0  0  0
  1  2  1  0
  2  3  2  0
  2  4  1  0
  3  5  1  0
  1  6  1  0
  5  7  1  0
  6  7  1  0
  5  8  2  0
  6  9  2  0
  7 10  1  0
 10 11  1  0
 10 12  1  0
 12 13  1  0
 11 14  1  0
 14 15  1  0
 13 16  1  0
 14 16  1  0
M  END
