
     RDKit          3D

 16 16  0  0  0  0  0  0  0  0999 V2000
  -15.1816   28.6377  -22.5184 O   0  0  0  0  0  0  0  0  0  0  0  0
  -15.8815   29.6182  -22.5681 C   0  0  0  0  0  0  0  0  0  0  0  0
  -17.1869   29.5635  -22.1673 N   0  0  0  0  0  0  0  0  0  0  0  0
  -15.3705   30.6474  -23.3014 N   0  0  0  0  0  0  0  0  0  0  0  0
  -16.2067   31.6623  -23.6090 C   0  0  0  0  0  0  0  0  0  0  0  0
  -15.5754   27.3693  -21.8372 C   0  0  0  0  0  0  0  0  0  0  0  0
  -15.7144   32.7991  -24.3711 N   0  0  0  0  0  0  0  0  0  0  0  0
  -16.5660   33.7870  -24.6633 C   0  0  0  0  0  0  0  0  0  0  0  0
  -17.5691   31.6014  -23.2728 C   0  0  0  0  0  0  0  0  0  0  0  0
  -17.8765   30.4388  -22.6198 C   0  0  0  0  0  0  0  0  0  0  0  0
  -15.8190   34.9393  -25.0593 C   0  0  0  0  0  0  0  0  0  0  0  0
  -17.8421   33.7934  -24.4869 O   0  0  0  0  0  0  0  0  0  0  0  0
  -15.9966   35.9995  -24.6201 O   0  0  0  0  0  0  0  0  0  0  0  0
  -16.1940   34.9131  -26.6694 C   0  0  0  0  0  0  0  0  0  0  0  0
  -16.0405   35.8794  -27.3899 O   0  0  0  0  0  0  0  0  0  0  0  0
  -16.8838   33.7772  -27.1636 N   0  0  0  0  0  0  0  0  0  0  0  0
  1  2  1  0
  2  3  2  0
  2  4  1  0
  4  5  1  0
  1  6  1  0
  5  7  1  0
  7  8  1  0
  5  9  2  0
  3 10  1  0
  9 10  1  0
  8 11  1  0
  8 12  2  0
 11 13  1  0
 11 14  1  0
 14 15  2  0
 14 16  1  0
M  END
