
     RDKit          3D

 17 17  0  0  0  0  0  0  0  0999 V2000
  -16.3474   36.4961  -20.6363 O   0  0  0  0  0  0  0  0  0  0  0  0
  -17.7051   36.9438  -21.1925 P   0  0  0  0  0  0  0  0  0  0  0  0
  -17.7820   36.2280  -22.5043 O   0  0  0  0  0  0  0  0  0  0  0  0
  -18.9026   36.5696  -20.3381 O   0  0  0  0  0  0  0  0  0  0  0  0
  -17.4100   34.9962  -23.0425 C   0  0  0  0  0  0  0  0  0  0  0  0
  -17.7726   38.4330  -21.2563 O   0  0  0  0  0  0  0  0  0  0  0  0
  -18.4815   34.1601  -23.3387 C   0  0  0  0  0  0  0  0  0  0  0  0
  -16.1639   34.8195  -23.5718 C   0  0  0  0  0  0  0  0  0  0  0  0
  -19.7773   34.4029  -22.6122 O   0  0  0  0  0  0  0  0  0  0  0  0
  -18.3237   32.9427  -23.9185 C   0  0  0  0  0  0  0  0  0  0  0  0
  -17.0274   32.7183  -24.5015 C   0  0  0  0  0  0  0  0  0  0  0  0
  -19.4544   32.0637  -24.0954 C   0  0  0  0  0  0  0  0  0  0  0  0
  -15.2332   35.7540  -23.5444 O   0  0  0  0  0  0  0  0  0  0  0  0
  -16.0422   33.6210  -24.3251 C   0  0  0  0  0  0  0  0  0  0  0  0
  -16.7681   31.4517  -25.1403 C   0  0  0  0  0  0  0  0  0  0  0  0
  -15.7512   31.0265  -24.4664 O   0  0  0  0  0  0  0  0  0  0  0  0
  -19.5000   31.2793  -25.1557 O   0  0  0  0  0  0  0  0  0  0  0  0
  1  2  1  0
  2  3  1  0
  2  4  1  0
  3  5  1  0
  2  6  2  0
  5  7  1  0
  5  8  2  0
  7  9  1  0
  7 10  2  0
 10 11  1  0
 10 12  1  0
  8 13  1  0
  8 14  1  0
 11 14  2  0
 11 15  1  0
 15 16  1  0
 12 17  1  0
M  END
