
     RDKit          3D

 17 18  0  0  0  0  0  0  0  0999 V2000
  -18.9141   30.8564  -22.8484 O   0  0  0  0  0  0  0  0  0  0  0  0
  -17.7244   31.2654  -23.2216 C   0  0  0  0  0  0  0  0  0  0  0  0
  -17.7593   32.4159  -23.9942 N   0  0  0  0  0  0  0  0  0  0  0  0
  -16.5537   32.9211  -24.5809 C   0  0  0  0  0  0  0  0  0  0  0  0
  -15.5092   32.1311  -24.5579 N   0  0  0  0  0  0  0  0  0  0  0  0
  -16.5440   30.5755  -23.1003 C   0  0  0  0  0  0  0  0  0  0  0  0
  -15.3965   31.0919  -23.7347 C   0  0  0  0  0  0  0  0  0  0  0  0
  -16.4110   29.4956  -22.1221 N   0  0  0  0  0  0  0  0  0  0  0  0
  -18.8094   33.3133  -24.1449 C   0  0  0  0  0  0  0  0  0  0  0  0
  -15.6095   28.4981  -22.4938 C   0  0  0  0  0  0  0  0  0  0  0  0
  -18.3850   34.5058  -24.8531 C   0  0  0  0  0  0  0  0  0  0  0  0
  -18.8761   35.3447  -25.7031 O   0  0  0  0  0  0  0  0  0  0  0  0
  -14.9942   28.4067  -23.4962 O   0  0  0  0  0  0  0  0  0  0  0  0
  -16.8256   34.1944  -25.2386 N   0  0  0  0  0  0  0  0  0  0  0  0
  -15.8270   35.0857  -25.5351 C   0  0  0  0  0  0  0  0  0  0  0  0
  -15.9716   35.1529  -27.0875 C   0  0  0  0  0  0  0  0  0  0  0  0
  -15.3452   27.5389  -21.4364 O   0  0  0  0  0  0  0  0  0  0  0  0
  1  2  2  0
  2  3  1  0
  3  4  1  0
  4  5  2  0
  2  6  1  0
  5  7  1  0
  6  7  2  0
  6  8  1  0
  3  9  1  0
  8 10  1  0
  9 11  1  0
 11 12  2  0
 10 13  2  0
  4 14  1  0
 11 14  1  0
 14 15  1  0
 15 16  1  0
 10 17  1  0
M  END
