
     RDKit          3D

 17 17  0  0  0  0  0  0  0  0999 V2000
  -16.3474   36.4961  -20.6363 O   0  0  0  0  0  0  0  0  0  0  0  0
  -17.7051   36.9438  -21.1925 P   0  0  0  0  0  0  0  0  0  0  0  0
  -17.7820   36.2280  -22.5043 O   0  0  0  0  0  0  0  0  0  0  0  0
  -18.9026   36.5696  -20.3381 O   0  0  0  0  0  0  0  0  0  0  0  0
  -17.4100   34.9962  -23.0425 C   0  0  0  0  0  0  0  0  0  0  0  0
  -17.7726   38.4330  -21.2563 O   0  0  0  0  0  0  0  0  0  0  0  0
  -18.4815   34.1601  -23.3387 C   0  0  0  0  0  0  0  0  0  0  0  0
  -16.1639   34.8195  -23.5718 C   0  0  0  0  0  0  0  0  0  0  0  0
  -19.7773   34.4029  -22.6122 O   0  0  0  0  0  0  0  0  0  0  0  0
  -15.9394   33.6334  -24.2989 C   0  0  0  0  0  0  0  0  0  0  0  0
  -18.2392   32.9342  -23.8992 C   0  0  0  0  0  0  0  0  0  0  0  0
  -14.7079   33.3819  -24.9186 O   0  0  0  0  0  0  0  0  0  0  0  0
  -19.3934   31.9684  -24.0516 C   0  0  0  0  0  0  0  0  0  0  0  0
  -17.0284   32.6825  -24.4811 C   0  0  0  0  0  0  0  0  0  0  0  0
  -16.7277   31.4648  -25.2275 C   0  0  0  0  0  0  0  0  0  0  0  0
  -19.3481   31.0673  -22.9566 O   0  0  0  0  0  0  0  0  0  0  0  0
  -15.7155   30.9056  -24.5583 O   0  0  0  0  0  0  0  0  0  0  0  0
  1  2  1  0
  2  3  1  0
  2  4  1  0
  3  5  1  0
  2  6  2  0
  5  7  1  0
  5  8  2  0
  7  9  1  0
  8 10  1  0
  7 11  2  0
 10 12  1  0
 11 13  1  0
 10 14  2  0
 11 14  1  0
 14 15  1  0
 13 16  1  0
 15 17  1  0
M  END
