
     RDKit          3D

 17 17  0  0  0  0  0  0  0  0999 V2000
  -15.1675   28.5144  -22.7967 O   0  0  0  0  0  0  0  0  0  0  0  0
  -15.9549   28.8606  -21.9693 C   0  0  0  0  0  0  0  0  0  0  0  0
  -16.3984   30.1366  -22.0659 N   0  0  0  0  0  0  0  0  0  0  0  0
  -17.5198   30.5090  -22.7530 C   0  0  0  0  0  0  0  0  0  0  0  0
  -16.5626   28.0128  -21.0962 N   0  0  0  0  0  0  0  0  0  0  0  0
  -18.7010   30.0970  -22.5863 O   0  0  0  0  0  0  0  0  0  0  0  0
  -17.5225   31.9384  -23.4175 C   0  0  0  0  0  0  0  0  0  0  0  0
  -16.5549   32.0085  -24.5086 C   0  0  0  0  0  0  0  0  0  0  0  0
  -18.6972   32.4909  -23.7340 C   0  0  0  0  0  0  0  0  0  0  0  0
  -15.3476   31.2308  -24.4031 F   0  0  0  0  0  0  0  0  0  0  0  0
  -16.5551   33.0156  -25.4130 C   0  0  0  0  0  0  0  0  0  0  0  0
  -19.8259   32.2823  -22.8555 O   0  0  0  0  0  0  0  0  0  0  0  0
  -17.5189   33.8631  -25.5412 C   0  0  0  0  0  0  0  0  0  0  0  0
  -18.7338   33.4696  -24.7020 C   0  0  0  0  0  0  0  0  0  0  0  0
  -17.5825   34.9368  -26.7195 C   0  0  0  0  0  0  0  0  0  0  0  0
  -17.3095   36.0285  -26.1916 O   0  0  0  0  0  0  0  0  0  0  0  0
  -16.5062   34.4036  -27.6326 C   0  0  0  0  0  0  0  0  0  0  0  0
  1  2  2  0
  2  3  1  0
  3  4  1  0
  2  5  1  0
  4  6  2  0
  4  7  1  0
  7  8  1  0
  7  9  2  0
  8 10  1  0
  8 11  2  0
  9 12  1  0
 11 13  1  0
  9 14  1  0
 13 14  2  0
 13 15  1  0
 15 16  1  0
 15 17  1  0
M  END
