
     RDKit          3D

 17 17  0  0  0  0  0  0  0  0999 V2000
  -19.3446   30.8550  -22.3508 O   0  0  0  0  0  0  0  0  0  0  0  0
  -18.7300   31.9008  -22.5517 C   0  0  0  0  0  0  0  0  0  0  0  0
  -19.0880   32.9878  -21.7764 C   0  0  0  0  0  0  0  0  0  0  0  0
  -17.9351   32.0100  -23.5396 N   0  0  0  0  0  0  0  0  0  0  0  0
  -17.2697   33.1578  -23.9529 C   0  0  0  0  0  0  0  0  0  0  0  0
  -17.3443   30.6717  -23.8695 C   0  0  0  0  0  0  0  0  0  0  0  0
  -17.7458   34.3718  -23.3958 C   0  0  0  0  0  0  0  0  0  0  0  0
  -16.4657   33.0672  -25.2223 C   0  0  0  0  0  0  0  0  0  0  0  0
  -20.0069   33.0333  -20.8117 O   0  0  0  0  0  0  0  0  0  0  0  0
  -17.0711   29.8820  -22.6095 C   0  0  0  0  0  0  0  0  0  0  0  0
  -15.4403   33.9606  -25.1605 O   0  0  0  0  0  0  0  0  0  0  0  0
  -17.1456   33.2332  -26.5171 C   0  0  0  0  0  0  0  0  0  0  0  0
  -15.5458   30.0060  -22.3004 C   0  0  0  0  0  0  0  0  0  0  0  0
  -18.5373   34.3593  -22.3290 C   0  0  0  0  0  0  0  0  0  0  0  0
  -16.3168   33.6017  -27.5626 N   0  0  0  0  0  0  0  0  0  0  0  0
  -15.1107   28.7755  -22.3878 O   0  0  0  0  0  0  0  0  0  0  0  0
  -18.2932   33.0810  -26.6292 O   0  0  0  0  0  0  0  0  0  0  0  0
  1  2  2  0
  2  3  1  0
  2  4  1  0
  4  5  1  0
  4  6  1  0
  5  7  2  0
  5  8  1  0
  3  9  1  0
  6 10  1  0
  8 11  1  0
  8 12  1  0
 10 13  1  0
  3 14  2  0
  7 14  1  0
 12 15  1  0
 13 16  1  0
 12 17  2  0
M  END
