
     RDKit          3D

 17 18  0  0  0  0  0  0  0  0999 V2000
  -17.5932   30.1573  -22.6492 N   0  0  0  0  0  0  0  0  0  0  0  0
  -16.3211   30.0927  -22.7467 C   0  0  0  0  0  0  0  0  0  0  0  0
  -15.7274   31.1384  -23.4350 N   0  0  0  0  0  0  0  0  0  0  0  0
  -15.6388   29.1529  -21.9796 N   0  0  0  0  0  0  0  0  0  0  0  0
  -16.3118   31.9980  -24.1685 C   0  0  0  0  0  0  0  0  0  0  0  0
  -17.7126   31.9910  -24.1359 C   0  0  0  0  0  0  0  0  0  0  0  0
  -18.3815   31.0224  -23.3604 C   0  0  0  0  0  0  0  0  0  0  0  0
  -19.6180   30.9075  -23.2546 O   0  0  0  0  0  0  0  0  0  0  0  0
  -18.5120   32.9507  -25.0203 C   0  0  0  0  0  0  0  0  0  0  0  0
  -18.3627   34.2498  -24.7295 O   0  0  0  0  0  0  0  0  0  0  0  0
  -18.1404   32.7040  -26.5549 C   0  0  0  0  0  0  0  0  0  0  0  0
  -17.3098   34.8773  -25.4124 C   0  0  0  0  0  0  0  0  0  0  0  0
  -16.0531   34.9954  -24.9176 C   0  0  0  0  0  0  0  0  0  0  0  0
  -15.0611   34.8301  -25.7631 O   0  0  0  0  0  0  0  0  0  0  0  0
  -17.2621   33.8976  -26.8006 C   0  0  0  0  0  0  0  0  0  0  0  0
  -15.8741   35.6064  -23.7815 O   0  0  0  0  0  0  0  0  0  0  0  0
  -16.7727   34.0601  -27.8329 C   0  0  0  0  0  0  0  0  0  0  0  0
  1  2  1  0
  2  3  2  0
  2  4  1  0
  3  5  1  0
  5  6  2  0
  1  7  1  0
  6  7  1  0
  7  8  2  0
  6  9  1  0
  9 10  1  0
  9 11  1  0
 10 12  1  0
 12 13  1  0
 13 14  1  0
 11 15  1  0
 12 15  1  0
 13 16  2  0
 15 17  2  0
M  END
