
     RDKit          3D

 17 19  0  0  0  0  0  0  0  0999 V2000
  -15.8083   32.7177  -28.8896 C   0  0  0  0  0  0  0  0  0  0  0  0
  -15.9633   33.9835  -28.7270 C   0  0  0  0  0  0  0  0  0  0  0  0
  -16.3247   31.7979  -27.8927 C   0  0  0  0  0  0  0  0  0  0  0  0
  -16.9183   32.4018  -26.8421 C   0  0  0  0  0  0  0  0  0  0  0  0
  -16.3728   34.4806  -27.6485 C   0  0  0  0  0  0  0  0  0  0  0  0
  -17.5658   31.5512  -25.8109 C   0  0  0  0  0  0  0  0  0  0  0  0
  -18.9148   32.0686  -25.5521 C   0  0  0  0  0  0  0  0  0  0  0  0
  -17.0019   33.7585  -26.7271 C   0  0  0  0  0  0  0  0  0  0  0  0
  -16.9265   31.7135  -24.4800 C   0  0  0  0  0  0  0  0  0  0  0  0
  -19.4379   31.4720  -24.3210 C   0  0  0  0  0  0  0  0  0  0  0  0
  -18.1452   31.4051  -23.4591 C   0  0  0  0  0  0  0  0  0  0  0  0
  -16.4084   33.1199  -24.3172 C   0  0  0  0  0  0  0  0  0  0  0  0
  -17.4353   34.2213  -25.3879 C   0  0  0  0  0  0  0  0  0  0  0  0
  -17.8876   30.1457  -22.9006 O   0  0  0  0  0  0  0  0  0  0  0  0
  -16.5860   29.8788  -22.4859 C   0  0  0  0  0  0  0  0  0  0  0  0
  -15.6037   30.6979  -22.5336 O   0  0  0  0  0  0  0  0  0  0  0  0
  -16.1629   28.4815  -22.3633 C   0  0  0  0  0  0  0  0  0  0  0  0
  1  2  1  0
  1  3  2  0
  3  4  1  0
  2  5  2  0
  4  6  1  0
  6  7  1  0
  4  8  2  0
  5  8  1  0
  6  9  1  0
  7 10  1  0
  9 11  1  0
 10 11  1  0
  9 12  1  0
  8 13  1  0
 12 13  1  0
 11 14  1  0
 14 15  1  0
 15 16  2  0
 15 17  1  0
M  END
