
     RDKit          3D

 17 18  0  0  0  0  0  0  0  0999 V2000
  -15.6677   33.6440  -28.9004 O   0  0  0  0  0  0  0  0  0  0  0  0
  -16.5837   33.9100  -27.9010 C   0  0  0  0  0  0  0  0  0  0  0  0
  -17.0430   32.8023  -27.1367 C   0  0  0  0  0  0  0  0  0  0  0  0
  -17.4646   33.0700  -25.8257 C   0  0  0  0  0  0  0  0  0  0  0  0
  -17.5045   31.9146  -25.0404 C   0  0  0  0  0  0  0  0  0  0  0  0
  -16.4627   33.9812  -25.1242 C   0  0  0  0  0  0  0  0  0  0  0  0
  -18.6751   31.6510  -24.2525 C   0  0  0  0  0  0  0  0  0  0  0  0
  -16.8543   35.2306  -24.6943 C   0  0  0  0  0  0  0  0  0  0  0  0
  -16.3118   31.9198  -24.0132 N   0  0  0  0  0  0  0  0  0  0  0  0
  -16.1393   30.8996  -23.1819 C   0  0  0  0  0  0  0  0  0  0  0  0
  -14.9505   30.4431  -22.8500 O   0  0  0  0  0  0  0  0  0  0  0  0
  -15.5747   33.1291  -24.3171 C   0  0  0  0  0  0  0  0  0  0  0  0
  -19.8704   31.7298  -24.8021 O   0  0  0  0  0  0  0  0  0  0  0  0
  -17.1413   30.1026  -22.6760 N   0  0  0  0  0  0  0  0  0  0  0  0
  -18.4471   30.4631  -23.2250 C   0  0  0  0  0  0  0  0  0  0  0  0
  -16.1300   36.0458  -23.9979 O   0  0  0  0  0  0  0  0  0  0  0  0
  -18.2061   35.4132  -24.5988 O   0  0  0  0  0  0  0  0  0  0  0  0
  1  2  1  0
  2  3  1  0
  3  4  1  0
  4  5  1  0
  4  6  1  0
  5  7  1  0
  6  8  1  0
  5  9  1  0
  9 10  1  0
 10 11  2  0
  6 12  1  0
  9 12  1  0
  7 13  1  0
 10 14  1  0
  7 15  1  0
 14 15  1  0
  8 16  1  0
  8 17  2  0
M  END
