
     RDKit          3D

 17 18  0  0  0  0  0  0  0  0999 V2000
  -17.5932   30.1573  -22.6492 N   0  0  0  0  0  0  0  0  0  0  0  0
  -18.3311   30.8404  -22.9658 C   0  0  0  0  0  0  0  0  0  0  0  0
  -17.8455   32.0087  -23.7426 C   0  0  0  0  0  0  0  0  0  0  0  0
  -18.6364   33.0880  -24.2925 C   0  0  0  0  0  0  0  0  0  0  0  0
  -17.8347   34.0508  -25.1761 N   0  0  0  0  0  0  0  0  0  0  0  0
  -17.1530   33.5598  -26.2259 C   0  0  0  0  0  0  0  0  0  0  0  0
  -17.4069   35.2559  -24.4832 C   0  0  0  0  0  0  0  0  0  0  0  0
  -19.5221   31.1443  -22.4626 O   0  0  0  0  0  0  0  0  0  0  0  0
  -16.2347   30.0133  -23.1267 C   0  0  0  0  0  0  0  0  0  0  0  0
  -15.7980   31.0642  -23.8161 C   0  0  0  0  0  0  0  0  0  0  0  0
  -16.5610   32.0196  -24.1970 C   0  0  0  0  0  0  0  0  0  0  0  0
  -15.4382   28.9263  -22.3640 C   0  0  0  0  0  0  0  0  0  0  0  0
  -16.6121   34.7608  -26.9389 C   0  0  0  0  0  0  0  0  0  0  0  0
  -17.0323   35.3596  -23.3392 O   0  0  0  0  0  0  0  0  0  0  0  0
  -16.9982   36.2267  -25.3768 N   0  0  0  0  0  0  0  0  0  0  0  0
  -17.0366   35.9374  -26.6628 C   0  0  0  0  0  0  0  0  0  0  0  0
  -16.8348   34.3960  -28.4664 O   0  0  0  0  0  0  0  0  0  0  0  0
  1  2  1  0
  2  3  1  0
  3  4  1  0
  4  5  1  0
  5  6  1  0
  5  7  1  0
  2  8  2  0
  1  9  1  0
  9 10  2  0
  3 11  2  0
 10 11  1  0
  9 12  1  0
  6 13  1  0
  7 14  2  0
  7 15  1  0
 13 16  1  0
 15 16  1  0
 13 17  1  0
M  END
