
     RDKit          3D

 13 14  0  0  0  0  0  0  0  0999 V2000
  -15.6677   33.6440  -28.9004 O   0  0  0  0  0  0  0  0  0  0  0  0
  -16.5837   33.9100  -27.9010 C   0  0  0  0  0  0  0  0  0  0  0  0
  -16.4285   35.0362  -27.1277 C   0  0  0  0  0  0  0  0  0  0  0  0
  -17.4430   32.8688  -27.4767 C   0  0  0  0  0  0  0  0  0  0  0  0
  -17.1364   35.0968  -25.9550 C   0  0  0  0  0  0  0  0  0  0  0  0
  -17.0379   36.2840  -25.1999 O   0  0  0  0  0  0  0  0  0  0  0  0
  -17.3291   36.1397  -23.7693 P   0  0  0  0  0  0  0  0  0  0  0  0
  -18.0545   34.1266  -25.5562 C   0  0  0  0  0  0  0  0  0  0  0  0
  -16.1147   36.0367  -23.1215 O   0  0  0  0  0  0  0  0  0  0  0  0
  -18.1530   32.9708  -26.3882 C   0  0  0  0  0  0  0  0  0  0  0  0
  -17.9675   34.8691  -23.3125 O   0  0  0  0  0  0  0  0  0  0  0  0
  -18.2368   37.3262  -23.3838 O   0  0  0  0  0  0  0  0  0  0  0  0
  -18.9071   34.1999  -24.3781 C   0  0  0  0  0  0  0  0  0  0  0  0
  1  2  1  0
  2  3  2  0
  2  4  1  0
  3  5  1  0
  5  6  1  0
  6  7  1  0
  5  8  2  0
  7  9  1  0
  4 10  2  0
  8 10  1  0
  7 11  1  0
  7 12  2  0
  8 13  1  0
 11 13  1  0
M  END
