
     RDKit          3D

 18 19  0  0  0  0  0  0  0  0999 V2000
  -15.9957   34.1586  -28.5841 N   0  0  0  0  0  0  0  0  0  0  0  0
  -16.6213   33.5872  -27.7403 C   0  0  0  0  0  0  0  0  0  0  0  0
  -16.9780   32.3985  -27.7004 N   0  0  0  0  0  0  0  0  0  0  0  0
  -17.6766   32.1378  -26.5130 C   0  0  0  0  0  0  0  0  0  0  0  0
  -17.6460   33.2053  -25.7426 C   0  0  0  0  0  0  0  0  0  0  0  0
  -16.8690   34.3538  -26.4205 C   0  0  0  0  0  0  0  0  0  0  0  0
  -16.5986   35.5406  -25.9459 C   0  0  0  0  0  0  0  0  0  0  0  0
  -16.4581   35.6246  -24.6653 O   0  0  0  0  0  0  0  0  0  0  0  0
  -17.8581   33.0588  -24.2443 C   0  0  0  0  0  0  0  0  0  0  0  0
  -17.8790   31.8341  -23.6177 C   0  0  0  0  0  0  0  0  0  0  0  0
  -16.9097   36.3870  -26.7474 O   0  0  0  0  0  0  0  0  0  0  0  0
  -19.1089   31.1918  -23.3107 C   0  0  0  0  0  0  0  0  0  0  0  0
  -16.7363   31.1464  -23.3583 C   0  0  0  0  0  0  0  0  0  0  0  0
  -16.5466   29.9380  -22.7958 C   0  0  0  0  0  0  0  0  0  0  0  0
  -17.6961   29.2228  -22.4600 C   0  0  0  0  0  0  0  0  0  0  0  0
  -15.1404   29.3547  -22.3477 O   0  0  0  0  0  0  0  0  0  0  0  0
  -15.0294   28.0447  -22.5422 C   0  0  0  0  0  0  0  0  0  0  0  0
  -18.9505   29.9441  -22.6858 C   0  0  0  0  0  0  0  0  0  0  0  0
  1  2  1  0
  2  3  2  0
  3  4  1  0
  4  5  2  0
  2  6  1  0
  5  6  1  0
  6  7  1  0
  7  8  1  0
  5  9  1  0
  9 10  1  0
  7 11  2  0
 10 12  1  0
 10 13  2  0
 13 14  1  0
 14 15  2  0
 14 16  1  0
 16 17  1  0
 12 18  2  0
 15 18  1  0
M  END
