
     RDKit          3D

 18 20  0  0  0  0  0  0  0  0999 V2000
  -15.8083   32.7177  -28.8896 C   0  0  0  0  0  0  0  0  0  0  0  0
  -15.9633   33.9835  -28.7270 C   0  0  0  0  0  0  0  0  0  0  0  0
  -16.4678   34.2285  -27.5591 C   0  0  0  0  0  0  0  0  0  0  0  0
  -16.8233   35.6241  -27.0797 C   0  0  0  0  0  0  0  0  0  0  0  0
  -16.2448   31.9956  -27.8463 N   0  0  0  0  0  0  0  0  0  0  0  0
  -17.1311   35.5787  -25.6825 C   0  0  0  0  0  0  0  0  0  0  0  0
  -16.6885   33.0343  -26.9460 C   0  0  0  0  0  0  0  0  0  0  0  0
  -17.0984   33.0610  -25.6244 C   0  0  0  0  0  0  0  0  0  0  0  0
  -17.3396   34.3024  -24.9673 C   0  0  0  0  0  0  0  0  0  0  0  0
  -17.2883   31.7909  -24.8364 C   0  0  0  0  0  0  0  0  0  0  0  0
  -16.3141   31.5875  -23.8735 C   0  0  0  0  0  0  0  0  0  0  0  0
  -14.9868   31.9670  -24.0908 O   0  0  0  0  0  0  0  0  0  0  0  0
  -16.7410   31.1716  -22.6198 C   0  0  0  0  0  0  0  0  0  0  0  0
  -17.9803   30.7338  -22.5223 O   0  0  0  0  0  0  0  0  0  0  0  0
  -18.6382   31.4588  -24.5637 C   0  0  0  0  0  0  0  0  0  0  0  0
  -18.9062   30.8257  -23.4091 C   0  0  0  0  0  0  0  0  0  0  0  0
  -15.7783   30.6594  -21.6324 C   0  0  0  0  0  0  0  0  0  0  0  0
  -15.1588   29.3474  -21.9713 O   0  0  0  0  0  0  0  0  0  0  0  0
  1  2  1  0
  2  3  2  0
  3  4  1  0
  1  5  2  0
  4  6  2  0
  3  7  1  0
  5  7  1  0
  7  8  2  0
  6  9  1  0
  8  9  1  0
  8 10  1  0
 10 11  1  0
 11 12  1  0
 11 13  2  0
 13 14  1  0
 10 15  1  0
 14 16  1  0
 15 16  2  0
 13 17  1  0
 17 18  1  0
M  END
