
     RDKit          3D

  5  5  0  0  0  0  0  0  0  0999 V2000
  -16.3658   33.4944  -27.9297 C   0  0  0  0  0  0  0  0  0  0  0  0
  -16.9636   33.9380  -26.8129 C   0  0  0  0  0  0  0  0  0  0  0  0
  -16.2771   32.2064  -28.1741 C   0  0  0  0  0  0  0  0  0  0  0  0
  -16.7839   31.5904  -27.1495 C   0  0  0  0  0  0  0  0  0  0  0  0
  -17.1396   32.4517  -26.2936 C   0  0  0  0  0  0  0  0  0  0  0  0
  1  2  1  0
  1  3  2  0
  3  4  1  0
  2  5  2  0
  4  5  2  0
M  END
