
     RDKit          3D

 18 19  0  0  0  0  0  0  0  0999 V2000
  -18.9141   30.8564  -22.8484 O   0  0  0  0  0  0  0  0  0  0  0  0
  -17.9420   31.2899  -23.3022 C   0  0  0  0  0  0  0  0  0  0  0  0
  -16.5902   30.5290  -23.1095 C   0  0  0  0  0  0  0  0  0  0  0  0
  -15.4970   31.1219  -23.6146 C   0  0  0  0  0  0  0  0  0  0  0  0
  -15.5547   32.2500  -24.3855 N   0  0  0  0  0  0  0  0  0  0  0  0
  -17.8958   32.4721  -23.9744 N   0  0  0  0  0  0  0  0  0  0  0  0
  -14.2797   30.3872  -23.4233 O   0  0  0  0  0  0  0  0  0  0  0  0
  -16.6803   32.9145  -24.5426 C   0  0  0  0  0  0  0  0  0  0  0  0
  -16.6883   34.0008  -25.4746 C   0  0  0  0  0  0  0  0  0  0  0  0
  -19.0351   33.1456  -24.1116 C   0  0  0  0  0  0  0  0  0  0  0  0
  -19.0534   34.3091  -25.0018 C   0  0  0  0  0  0  0  0  0  0  0  0
  -17.8576   34.7549  -25.6292 C   0  0  0  0  0  0  0  0  0  0  0  0
  -16.5488   29.4150  -22.2295 O   0  0  0  0  0  0  0  0  0  0  0  0
  -15.4412   34.4201  -26.1751 C   0  0  0  0  0  0  0  0  0  0  0  0
  -15.5105   34.1714  -27.5343 C   0  0  0  0  0  0  0  0  0  0  0  0
  -15.9908   32.8772  -27.9866 C   0  0  0  0  0  0  0  0  0  0  0  0
  -14.6315   35.0136  -25.5746 O   0  0  0  0  0  0  0  0  0  0  0  0
  -15.2966   32.4630  -29.0973 C   0  0  0  0  0  0  0  0  0  0  0  0
  1  2  2  0
  2  3  1  0
  3  4  2  0
  4  5  1  0
  2  6  1  0
  4  7  1  0
  5  8  1  0
  6  8  1  0
  8  9  2  0
  6 10  1  0
 10 11  2  0
  9 12  1  0
 11 12  1  0
  3 13  1  0
  9 14  1  0
 14 15  1  0
 15 16  1  0
 14 17  2  0
 16 18  2  0
M  END
