
     RDKit          3D

 18 18  0  0  0  0  0  0  0  0999 V2000
  -16.5264   36.7113  -20.8172 O   0  0  0  0  0  0  0  0  0  0  0  0
  -17.2741   36.7620  -21.9915 P   0  0  0  0  0  0  0  0  0  0  0  0
  -16.8012   37.7049  -22.8892 O   0  0  0  0  0  0  0  0  0  0  0  0
  -17.1280   35.3457  -22.5626 O   0  0  0  0  0  0  0  0  0  0  0  0
  -16.7443   35.0402  -23.9486 C   0  0  0  0  0  0  0  0  0  0  0  0
  -18.8047   37.0778  -21.7638 O   0  0  0  0  0  0  0  0  0  0  0  0
  -17.2334   33.6918  -24.2771 C   0  0  0  0  0  0  0  0  0  0  0  0
  -18.4619   33.5285  -24.3307 O   0  0  0  0  0  0  0  0  0  0  0  0
  -16.5243   33.5056  -25.6585 C   0  0  0  0  0  0  0  0  0  0  0  0
  -18.8795   32.1916  -24.3483 C   0  0  0  0  0  0  0  0  0  0  0  0
  -16.4499   34.7205  -26.2655 C   0  0  0  0  0  0  0  0  0  0  0  0
  -17.1755   32.5952  -26.5262 C   0  0  0  0  0  0  0  0  0  0  0  0
  -18.5776   31.8093  -25.8157 C   0  0  0  0  0  0  0  0  0  0  0  0
  -16.3284   31.5838  -26.8683 O   0  0  0  0  0  0  0  0  0  0  0  0
  -19.4276   32.1596  -26.9247 O   0  0  0  0  0  0  0  0  0  0  0  0
  -15.9889   34.8556  -27.4361 O   0  0  0  0  0  0  0  0  0  0  0  0
  -18.8062   31.3937  -23.4589 C   0  0  0  0  0  0  0  0  0  0  0  0
  -18.2076   30.3116  -23.5436 O   0  0  0  0  0  0  0  0  0  0  0  0
  1  2  1  0
  2  3  2  0
  2  4  1  0
  4  5  1  0
  2  6  1  0
  5  7  1  0
  7  8  1  0
  7  9  1  0
  8 10  1  0
  9 11  1  0
  9 12  1  0
 10 13  1  0
 12 13  1  0
 12 14  1  0
 13 15  1  0
 11 16  1  0
 10 17  1  0
 17 18  1  0
M  END
