
     RDKit          3D

 18 18  0  0  0  0  0  0  0  0999 V2000
  -18.2926   30.0455  -22.6046 O   0  0  0  0  0  0  0  0  0  0  0  0
  -17.3348   30.7058  -22.9484 C   0  0  0  0  0  0  0  0  0  0  0  0
  -15.9973   30.4232  -22.8762 N   0  0  0  0  0  0  0  0  0  0  0  0
  -17.6594   32.1156  -23.4700 C   0  0  0  0  0  0  0  0  0  0  0  0
  -15.0420   31.2296  -23.4128 C   0  0  0  0  0  0  0  0  0  0  0  0
  -15.6434   29.2192  -22.0393 C   0  0  0  0  0  0  0  0  0  0  0  0
  -16.7197   32.8240  -24.1659 C   0  0  0  0  0  0  0  0  0  0  0  0
  -16.9877   34.0759  -24.7825 N   0  0  0  0  0  0  0  0  0  0  0  0
  -17.9866   34.3544  -25.5007 C   0  0  0  0  0  0  0  0  0  0  0  0
  -15.4675   32.3733  -24.1056 N   0  0  0  0  0  0  0  0  0  0  0  0
  -19.2040   32.3464  -23.7067 O   0  0  0  0  0  0  0  0  0  0  0  0
  -16.4290   35.2188  -24.0759 C   0  0  0  0  0  0  0  0  0  0  0  0
  -17.3004   36.1168  -23.5429 C   0  0  0  0  0  0  0  0  0  0  0  0
  -17.8915   33.5948  -26.8927 C   0  0  0  0  0  0  0  0  0  0  0  0
  -16.6875   36.9982  -22.6823 O   0  0  0  0  0  0  0  0  0  0  0  0
  -16.5471   33.9473  -27.5441 C   0  0  0  0  0  0  0  0  0  0  0  0
  -18.5238   36.1629  -23.5827 O   0  0  0  0  0  0  0  0  0  0  0  0
  -18.0513   32.2009  -27.0147 C   0  0  0  0  0  0  0  0  0  0  0  0
  1  2  2  0
  2  3  1  0
  2  4  1  0
  3  5  1  0
  3  6  1  0
  4  7  2  0
  7  8  1  0
  8  9  1  0
  5 10  2  0
  7 10  1  0
  4 11  1  0
  8 12  1  0
 12 13  1  0
  9 14  1  0
 13 15  2  0
 14 16  1  0
 13 17  1  0
 14 18  1  0
M  END
