
     RDKit          3D

 18 18  0  0  0  0  0  0  0  0999 V2000
  -16.5264   36.7113  -20.8172 O   0  0  0  0  0  0  0  0  0  0  0  0
  -17.2741   36.7620  -21.9915 P   0  0  0  0  0  0  0  0  0  0  0  0
  -17.1661   35.4582  -22.6589 O   0  0  0  0  0  0  0  0  0  0  0  0
  -17.4416   35.0556  -24.0257 P   0  0  0  0  0  0  0  0  0  0  0  0
  -18.7942   37.2590  -21.8229 O   0  0  0  0  0  0  0  0  0  0  0  0
  -16.6874   37.9447  -22.7779 O   0  0  0  0  0  0  0  0  0  0  0  0
  -16.0206   34.6957  -24.4948 O   0  0  0  0  0  0  0  0  0  0  0  0
  -18.3602   33.7659  -23.9093 O   0  0  0  0  0  0  0  0  0  0  0  0
  -17.7702   32.4597  -24.1528 C   0  0  0  0  0  0  0  0  0  0  0  0
  -18.4405   31.4539  -23.5210 C   0  0  0  0  0  0  0  0  0  0  0  0
  -18.1064   36.0654  -24.8354 O   0  0  0  0  0  0  0  0  0  0  0  0
  -16.6991   32.2327  -25.0486 C   0  0  0  0  0  0  0  0  0  0  0  0
  -17.6211   30.6087  -22.8120 O   0  0  0  0  0  0  0  0  0  0  0  0
  -15.9426   33.5649  -25.5063 C   0  0  0  0  0  0  0  0  0  0  0  0
  -19.6717   31.5820  -22.9825 O   0  0  0  0  0  0  0  0  0  0  0  0
  -16.3161   30.6750  -22.6880 C   0  0  0  0  0  0  0  0  0  0  0  0
  -15.7496   29.3129  -22.1678 C   0  0  0  0  0  0  0  0  0  0  0  0
  -15.1917   28.4966  -22.8911 O   0  0  0  0  0  0  0  0  0  0  0  0
  1  2  1  0
  2  3  1  0
  3  4  1  0
  2  5  2  0
  2  6  1  0
  4  7  1  0
  4  8  1  0
  8  9  1  0
  9 10  1  0
  4 11  2  0
  9 12  2  0
 10 13  1  0
  7 14  1  0
 12 14  1  0
 10 15  2  0
 13 16  1  0
 16 17  1  0
 17 18  2  0
M  END
