
     RDKit          3D

 13 14  0  0  0  0  0  0  0  0999 V2000
  -15.8083   32.7177  -28.8896 C   0  0  0  0  0  0  0  0  0  0  0  0
  -15.9633   33.9835  -28.7270 C   0  0  0  0  0  0  0  0  0  0  0  0
  -16.3247   31.7979  -27.8927 C   0  0  0  0  0  0  0  0  0  0  0  0
  -16.9183   32.4018  -26.8421 C   0  0  0  0  0  0  0  0  0  0  0  0
  -16.3728   34.4806  -27.6485 C   0  0  0  0  0  0  0  0  0  0  0  0
  -17.5658   31.5512  -25.8109 C   0  0  0  0  0  0  0  0  0  0  0  0
  -18.9148   32.0686  -25.5521 C   0  0  0  0  0  0  0  0  0  0  0  0
  -17.0019   33.7585  -26.7271 C   0  0  0  0  0  0  0  0  0  0  0  0
  -19.2070   31.9374  -24.1091 C   0  0  0  0  0  0  0  0  0  0  0  0
  -18.8026   32.9462  -23.3142 O   0  0  0  0  0  0  0  0  0  0  0  0
  -16.8701   31.6321  -24.4761 C   0  0  0  0  0  0  0  0  0  0  0  0
  -18.1206   30.8527  -23.7167 C   0  0  0  0  0  0  0  0  0  0  0  0
  -18.2243   29.6371  -24.0925 O   0  0  0  0  0  0  0  0  0  0  0  0
  1  2  1  0
  1  3  2  0
  3  4  1  0
  2  5  2  0
  4  6  1  0
  6  7  1  0
  4  8  2  0
  5  8  1  0
  7  9  1  0
  9 10  1  0
  6 11  1  0
  9 12  1  0
 11 12  1  0
 12 13  1  0
M  END
