
     RDKit          3D

 18 19  0  0  0  0  0  0  0  0999 V2000
  -17.5932   30.1573  -22.6492 N   0  0  0  0  0  0  0  0  0  0  0  0
  -16.3211   30.0927  -22.7467 C   0  0  0  0  0  0  0  0  0  0  0  0
  -15.7274   31.1384  -23.4350 N   0  0  0  0  0  0  0  0  0  0  0  0
  -15.6388   29.1529  -21.9796 N   0  0  0  0  0  0  0  0  0  0  0  0
  -16.3118   31.9980  -24.1685 C   0  0  0  0  0  0  0  0  0  0  0  0
  -17.7126   31.9910  -24.1359 C   0  0  0  0  0  0  0  0  0  0  0  0
  -18.5003   32.9603  -24.9689 C   0  0  0  0  0  0  0  0  0  0  0  0
  -18.3844   31.0350  -23.3707 C   0  0  0  0  0  0  0  0  0  0  0  0
  -19.6267   30.8721  -23.2579 O   0  0  0  0  0  0  0  0  0  0  0  0
  -18.3801   34.2579  -24.6751 N   0  0  0  0  0  0  0  0  0  0  0  0
  -17.2437   34.8172  -24.0956 C   0  0  0  0  0  0  0  0  0  0  0  0
  -19.2420   32.6378  -26.0299 C   0  0  0  0  0  0  0  0  0  0  0  0
  -17.4998   35.9294  -23.1983 C   0  0  0  0  0  0  0  0  0  0  0  0
  -16.6229   36.7409  -22.6735 O   0  0  0  0  0  0  0  0  0  0  0  0
  -18.7571   36.6677  -23.2995 O   0  0  0  0  0  0  0  0  0  0  0  0
  -19.9934   33.4971  -26.7420 C   0  0  0  0  0  0  0  0  0  0  0  0
  -19.8058   34.7844  -26.2916 C   0  0  0  0  0  0  0  0  0  0  0  0
  -18.9438   35.2275  -25.3910 C   0  0  0  0  0  0  0  0  0  0  0  0
  1  2  1  0
  2  3  2  0
  2  4  1  0
  3  5  1  0
  5  6  2  0
  6  7  1  0
  1  8  1  0
  6  8  1  0
  8  9  2  0
  7 10  1  0
 10 11  1  0
  7 12  2  0
 11 13  1  0
 13 14  1  0
 13 15  2  0
 12 16  1  0
 16 17  2  0
 10 18  1  0
 17 18  1  0
M  END
