
     RDKit          3D

 13 14  0  0  0  0  0  0  0  0999 V2000
  -17.5932   30.1573  -22.6492 N   0  0  0  0  0  0  0  0  0  0  0  0
  -16.3211   30.0927  -22.7467 C   0  0  0  0  0  0  0  0  0  0  0  0
  -15.7274   31.1384  -23.4350 N   0  0  0  0  0  0  0  0  0  0  0  0
  -15.6388   29.1529  -21.9796 N   0  0  0  0  0  0  0  0  0  0  0  0
  -16.3118   31.9980  -24.1685 C   0  0  0  0  0  0  0  0  0  0  0  0
  -18.3278   31.0740  -23.3815 C   0  0  0  0  0  0  0  0  0  0  0  0
  -15.6127   32.9250  -24.8991 N   0  0  0  0  0  0  0  0  0  0  0  0
  -16.4979   33.8011  -25.5449 C   0  0  0  0  0  0  0  0  0  0  0  0
  -15.8582   34.8373  -26.4645 N   0  0  0  0  0  0  0  0  0  0  0  0
  -17.6272   32.0431  -24.2418 C   0  0  0  0  0  0  0  0  0  0  0  0
  -18.4280   32.9239  -24.9638 N   0  0  0  0  0  0  0  0  0  0  0  0
  -17.8050   33.7755  -25.6845 C   0  0  0  0  0  0  0  0  0  0  0  0
  -16.2631   35.0714  -27.7360 C   0  0  0  0  0  0  0  0  0  0  0  0
  1  2  1  0
  2  3  2  0
  2  4  1  0
  3  5  1  0
  1  6  1  0
  5  7  2  0
  7  8  1  0
  8  9  1  0
  5 10  1  0
  6 10  2  0
 10 11  1  0
  8 12  2  0
 11 12  2  0
  9 13  1  0
M  END
