
     RDKit          3D

 19 21  0  0  0  0  0  0  0  0999 V2000
  -14.6538   27.9379  -22.8542 O   0  0  0  0  0  0  0  0  0  0  0  0
  -15.5100   28.8910  -22.3432 C   0  0  0  0  0  0  0  0  0  0  0  0
  -16.6014   28.4621  -21.8747 O   0  0  0  0  0  0  0  0  0  0  0  0
  -15.3815   30.2546  -22.6122 C   0  0  0  0  0  0  0  0  0  0  0  0
  -16.7220   30.8906  -22.7635 N   0  0  0  0  0  0  0  0  0  0  0  0
  -17.9296   30.5792  -22.2351 C   0  0  0  0  0  0  0  0  0  0  0  0
  -18.9359   31.0667  -23.2313 C   0  0  0  0  0  0  0  0  0  0  0  0
  -18.1039   32.0033  -24.0493 C   0  0  0  0  0  0  0  0  0  0  0  0
  -16.7712   31.4397  -24.0310 C   0  0  0  0  0  0  0  0  0  0  0  0
  -18.5968   32.4071  -25.4489 C   0  0  0  0  0  0  0  0  0  0  0  0
  -17.7918   33.4104  -26.0558 C   0  0  0  0  0  0  0  0  0  0  0  0
  -17.4161   34.4866  -25.3311 C   0  0  0  0  0  0  0  0  0  0  0  0
  -17.4478   33.2543  -27.4783 C   0  0  0  0  0  0  0  0  0  0  0  0
  -16.5008   34.4223  -27.8023 C   0  0  0  0  0  0  0  0  0  0  0  0
  -17.9333   34.6616  -23.9829 N   0  0  0  0  0  0  0  0  0  0  0  0
  -16.6934   35.3807  -25.6887 C   0  0  0  0  0  0  0  0  0  0  0  0
  -16.0494   34.2455  -29.2142 O   0  0  0  0  0  0  0  0  0  0  0  0
  -16.1634   35.3366  -27.0650 C   0  0  0  0  0  0  0  0  0  0  0  0
  -18.3838   33.3322  -23.4387 C   0  0  0  0  0  0  0  0  0  0  0  0
  1  2  2  0
  2  3  1  0
  2  4  1  0
  4  5  1  0
  5  6  1  0
  6  7  1  0
  7  8  1  0
  5  9  1  0
  8  9  1  0
  8 10  1  0
 10 11  1  0
 11 12  1  0
 11 13  2  0
 13 14  1  0
 12 15  1  0
 12 16  2  0
 14 17  1  0
 14 18  2  0
 16 18  1  0
  8 19  1  0
 15 19  2  0
M  END
