
     RDKit          3D

 19 20  0  0  0  0  0  0  0  0999 V2000
  -14.4756   28.2141  -22.9195 O   0  0  0  0  0  0  0  0  0  0  0  0
  -15.5608   28.9585  -22.4129 C   0  0  0  0  0  0  0  0  0  0  0  0
  -16.5576   28.3669  -21.9954 O   0  0  0  0  0  0  0  0  0  0  0  0
  -15.6648   30.3310  -22.7904 C   0  0  0  0  0  0  0  0  0  0  0  0
  -14.7942   30.9152  -23.5993 O   0  0  0  0  0  0  0  0  0  0  0  0
  -16.8708   30.9296  -22.4138 C   0  0  0  0  0  0  0  0  0  0  0  0
  -17.6398   31.6458  -23.2988 C   0  0  0  0  0  0  0  0  0  0  0  0
  -17.2094   32.2605  -24.3099 N   0  0  0  0  0  0  0  0  0  0  0  0
  -18.8798   31.9746  -22.8359 O   0  0  0  0  0  0  0  0  0  0  0  0
  -18.0109   33.1082  -25.2815 C   0  0  0  0  0  0  0  0  0  0  0  0
  -17.5903   34.4571  -25.2798 C   0  0  0  0  0  0  0  0  0  0  0  0
  -17.1879   35.1368  -24.2614 N   0  0  0  0  0  0  0  0  0  0  0  0
  -16.2295   35.9249  -23.9498 N   0  0  0  0  0  0  0  0  0  0  0  0
  -17.9477   32.4956  -26.6487 C   0  0  0  0  0  0  0  0  0  0  0  0
  -16.4761   36.2750  -22.6869 N   0  0  0  0  0  0  0  0  0  0  0  0
  -18.1350   34.9146  -23.0510 C   0  0  0  0  0  0  0  0  0  0  0  0
  -17.6000   35.8573  -22.1263 C   0  0  0  0  0  0  0  0  0  0  0  0
  -16.8997   33.1432  -27.4386 C   0  0  0  0  0  0  0  0  0  0  0  0
  -16.6269   34.3790  -26.5704 C   0  0  0  0  0  0  0  0  0  0  0  0
  1  2  2  0
  2  3  1  0
  2  4  1  0
  4  5  1  0
  4  6  2  3
  6  7  1  0
  7  8  1  0
  7  9  2  0
  8 10  1  0
 10 11  1  0
 11 12  1  0
 12 13  1  0
 10 14  1  0
 13 15  2  0
 12 16  1  0
 15 17  1  0
 16 17  2  0
 14 18  1  0
 11 19  1  0
 18 19  1  0
M  END
