
     RDKit          3D

 19 20  0  0  0  0  0  0  0  0999 V2000
  -16.3474   36.4961  -20.6363 O   0  0  0  0  0  0  0  0  0  0  0  0
  -17.7051   36.9438  -21.1925 P   0  0  0  0  0  0  0  0  0  0  0  0
  -17.7820   36.2280  -22.5043 O   0  0  0  0  0  0  0  0  0  0  0  0
  -17.7881   38.4217  -21.4082 O   0  0  0  0  0  0  0  0  0  0  0  0
  -18.7652   36.4330  -20.2396 O   0  0  0  0  0  0  0  0  0  0  0  0
  -16.9172   36.1239  -23.6663 C   0  0  0  0  0  0  0  0  0  0  0  0
  -17.3950   35.4479  -24.7853 C   0  0  0  0  0  0  0  0  0  0  0  0
  -16.4297   34.6880  -25.4591 C   0  0  0  0  0  0  0  0  0  0  0  0
  -18.5135   34.4983  -24.3762 O   0  0  0  0  0  0  0  0  0  0  0  0
  -16.2851   35.1893  -26.8463 O   0  0  0  0  0  0  0  0  0  0  0  0
  -17.1193   33.3391  -25.6599 C   0  0  0  0  0  0  0  0  0  0  0  0
  -18.1842   33.2362  -24.7186 C   0  0  0  0  0  0  0  0  0  0  0  0
  -16.3242   32.3004  -25.8726 O   0  0  0  0  0  0  0  0  0  0  0  0
  -17.6356   32.4926  -23.4898 N   0  0  0  0  0  0  0  0  0  0  0  0
  -18.3163   31.7592  -22.7521 C   0  0  0  0  0  0  0  0  0  0  0  0
  -16.5610   31.6769  -23.3767 C   0  0  0  0  0  0  0  0  0  0  0  0
  -17.7543   30.8819  -22.0388 N   0  0  0  0  0  0  0  0  0  0  0  0
  -16.6210   30.8616  -22.5075 C   0  0  0  0  0  0  0  0  0  0  0  0
  -15.5015   29.9959  -22.2104 C   0  0  0  0  0  0  0  0  0  0  0  0
  1  2  1  0
  2  3  1  0
  2  4  2  0
  2  5  1  0
  3  6  1  0
  6  7  1  0
  7  8  1  0
  7  9  1  0
  8 10  1  0
  8 11  1  0
  9 12  1  0
 11 12  1  0
 11 13  1  0
 12 14  1  0
 14 15  1  0
 14 16  1  0
 15 17  2  0
 16 18  2  0
 17 18  1  0
 18 19  1  0
M  END
