
     RDKit          3D

 19 19  0  0  0  0  0  0  0  0999 V2000
  -15.9333   33.3737  -28.3999 O   0  0  0  0  0  0  0  0  0  0  0  0
  -16.6718   34.3270  -27.7445 C   0  0  0  0  0  0  0  0  0  0  0  0
  -17.5697   33.6280  -26.7082 C   0  0  0  0  0  0  0  0  0  0  0  0
  -16.8726   33.4648  -25.5711 N   0  0  0  0  0  0  0  0  0  0  0  0
  -16.3331   34.6011  -24.9072 C   0  0  0  0  0  0  0  0  0  0  0  0
  -15.6868   35.4547  -25.5459 O   0  0  0  0  0  0  0  0  0  0  0  0
  -16.9125   32.1802  -24.8298 C   0  0  0  0  0  0  0  0  0  0  0  0
  -18.2101   31.9190  -24.2543 C   0  0  0  0  0  0  0  0  0  0  0  0
  -16.5372   34.8195  -23.6203 N   0  0  0  0  0  0  0  0  0  0  0  0
  -19.2789   32.3353  -24.3750 O   0  0  0  0  0  0  0  0  0  0  0  0
  -16.9997   36.1188  -23.1926 C   0  0  0  0  0  0  0  0  0  0  0  0
  -18.1810   30.7074  -23.4016 N   0  0  0  0  0  0  0  0  0  0  0  0
  -17.5651   36.1790  -21.9758 C   0  0  0  0  0  0  0  0  0  0  0  0
  -16.8765   36.8267  -20.9335 O   0  0  0  0  0  0  0  0  0  0  0  0
  -18.6658   35.5669  -21.4784 O   0  0  0  0  0  0  0  0  0  0  0  0
  -15.8601   32.0706  -23.7719 C   0  0  0  0  0  0  0  0  0  0  0  0
  -14.5167   31.8969  -24.3041 O   0  0  0  0  0  0  0  0  0  0  0  0
  -15.9381   30.8696  -22.8420 C   0  0  0  0  0  0  0  0  0  0  0  0
  -17.2753   30.6656  -22.4828 C   0  0  0  0  0  0  0  0  0  0  0  0
  1  2  1  0
  2  3  1  0
  3  4  1  0
  4  5  1  0
  5  6  2  0
  4  7  1  0
  7  8  1  0
  5  9  1  0
  8 10  2  0
  9 11  1  0
  8 12  1  0
 11 13  1  0
 13 14  1  0
 13 15  2  0
  7 16  1  0
 16 17  1  0
 16 18  1  0
 12 19  1  0
 18 19  1  0
M  END
