
     RDKit          3D

 13 13  0  0  0  0  0  0  0  0999 V2000
  -15.7417   33.3081  -28.9290 O   0  0  0  0  0  0  0  0  0  0  0  0
  -16.5260   33.7411  -27.9574 C   0  0  0  0  0  0  0  0  0  0  0  0
  -16.3523   35.0055  -27.4599 C   0  0  0  0  0  0  0  0  0  0  0  0
  -17.3857   32.8049  -27.3222 C   0  0  0  0  0  0  0  0  0  0  0  0
  -17.0917   35.4102  -26.3376 C   0  0  0  0  0  0  0  0  0  0  0  0
  -18.1162   33.2600  -26.1834 C   0  0  0  0  0  0  0  0  0  0  0  0
  -19.0797   32.3302  -25.5466 C   0  0  0  0  0  0  0  0  0  0  0  0
  -17.9719   34.5568  -25.7101 C   0  0  0  0  0  0  0  0  0  0  0  0
  -18.5273   31.6154  -24.4278 C   0  0  0  0  0  0  0  0  0  0  0  0
  -17.1316   31.6712  -24.0983 C   0  0  0  0  0  0  0  0  0  0  0  0
  -19.0862   30.4550  -23.9372 O   0  0  0  0  0  0  0  0  0  0  0  0
  -16.5058   30.7817  -23.1765 N   0  0  0  0  0  0  0  0  0  0  0  0
  -15.3317   30.5196  -23.1806 O   0  0  0  0  0  0  0  0  0  0  0  0
  1  2  1  0
  2  3  1  0
  2  4  2  0
  3  5  2  0
  4  6  1  0
  6  7  1  0
  5  8  1  0
  6  8  2  0
  7  9  1  0
  9 10  1  0
  9 11  2  0
 10 12  1  0
 12 13  1  0
M  END
