
     RDKit          3D

 19 20  0  0  0  0  0  0  0  0999 V2000
  -15.9957   34.1586  -28.5841 N   0  0  0  0  0  0  0  0  0  0  0  0
  -16.6213   33.5872  -27.7403 C   0  0  0  0  0  0  0  0  0  0  0  0
  -17.0769   34.3671  -26.6256 N   0  0  0  0  0  0  0  0  0  0  0  0
  -16.5915   32.4186  -27.5662 N   0  0  0  0  0  0  0  0  0  0  0  0
  -17.6736   33.8250  -25.5870 C   0  0  0  0  0  0  0  0  0  0  0  0
  -18.2937   34.6631  -24.5667 C   0  0  0  0  0  0  0  0  0  0  0  0
  -17.4565   35.5886  -24.0286 C   0  0  0  0  0  0  0  0  0  0  0  0
  -18.9392   33.7177  -23.5360 C   0  0  0  0  0  0  0  0  0  0  0  0
  -18.1539   32.5230  -23.1902 N   0  0  0  0  0  0  0  0  0  0  0  0
  -17.8834   36.8441  -23.7465 O   0  0  0  0  0  0  0  0  0  0  0  0
  -16.5740   33.0170  -24.9081 C   0  0  0  0  0  0  0  0  0  0  0  0
  -17.2338   32.0740  -23.8086 C   0  0  0  0  0  0  0  0  0  0  0  0
  -16.2266   35.6678  -24.3273 O   0  0  0  0  0  0  0  0  0  0  0  0
  -18.5281   31.9499  -21.9619 C   0  0  0  0  0  0  0  0  0  0  0  0
  -16.5619   30.9905  -23.5169 C   0  0  0  0  0  0  0  0  0  0  0  0
  -18.0052   30.8079  -21.6087 N   0  0  0  0  0  0  0  0  0  0  0  0
  -16.9855   30.3294  -22.3729 C   0  0  0  0  0  0  0  0  0  0  0  0
  -16.1692   29.1924  -22.0747 N   0  0  0  0  0  0  0  0  0  0  0  0
  -19.6673   32.3634  -21.3121 O   0  0  0  0  0  0  0  0  0  0  0  0
  1  2  1  0
  2  3  1  0
  2  4  2  0
  3  5  1  0
  5  6  1  0
  6  7  1  0
  6  8  1  0
  8  9  1  0
  7 10  1  0
  5 11  1  0
  9 12  1  0
 11 12  1  0
  7 13  2  0
  9 14  1  0
 12 15  2  0
 14 16  1  0
 15 17  1  0
 16 17  2  0
 17 18  1  0
 14 19  2  0
M  END
