
     RDKit          3D

  6  5  0  0  0  0  0  0  0  0999 V2000
  -14.7229   35.1078  -25.3805 O   0  0  0  0  0  0  0  0  0  0  0  0
  -16.0591   34.8928  -25.1531 C   0  0  0  0  0  0  0  0  0  0  0  0
  -16.5204   34.5253  -24.1542 O   0  0  0  0  0  0  0  0  0  0  0  0
  -16.9137   35.2926  -26.3870 C   0  0  0  0  0  0  0  0  0  0  0  0
  -16.3485   35.5751  -27.4419 O   0  0  0  0  0  0  0  0  0  0  0  0
  -18.1629   34.9965  -26.4392 O   0  0  0  0  0  0  0  0  0  0  0  0
  1  2  1  0
  2  3  2  0
  2  4  1  0
  4  5  1  0
  4  6  2  0
M  END
