
     RDKit          3D

 20 22  0  0  0  0  0  0  0  0999 V2000
  -18.2926   30.0455  -22.6046 O   0  0  0  0  0  0  0  0  0  0  0  0
  -17.3348   30.7058  -22.9484 C   0  0  0  0  0  0  0  0  0  0  0  0
  -15.9973   30.4232  -22.8762 N   0  0  0  0  0  0  0  0  0  0  0  0
  -17.6594   32.1156  -23.4700 C   0  0  0  0  0  0  0  0  0  0  0  0
  -15.0420   31.2296  -23.4128 C   0  0  0  0  0  0  0  0  0  0  0  0
  -15.6434   29.2192  -22.0393 C   0  0  0  0  0  0  0  0  0  0  0  0
  -16.7197   32.8240  -24.1659 C   0  0  0  0  0  0  0  0  0  0  0  0
  -16.9877   34.0759  -24.7825 N   0  0  0  0  0  0  0  0  0  0  0  0
  -15.4269   32.2663  -24.0332 N   0  0  0  0  0  0  0  0  0  0  0  0
  -19.1345   32.4974  -23.6898 C   0  0  0  0  0  0  0  0  0  0  0  0
  -15.9466   34.9386  -25.1579 C   0  0  0  0  0  0  0  0  0  0  0  0
  -16.0813   35.1982  -26.6436 C   0  0  0  0  0  0  0  0  0  0  0  0
  -15.9639   35.8485  -24.2179 O   0  0  0  0  0  0  0  0  0  0  0  0
  -18.3664   34.2728  -25.1418 C   0  0  0  0  0  0  0  0  0  0  0  0
  -19.3021   33.5146  -24.5075 C   0  0  0  0  0  0  0  0  0  0  0  0
  -16.0858   33.9899  -27.4815 C   0  0  0  0  0  0  0  0  0  0  0  0
  -15.4814   33.8686  -28.5604 C   0  0  0  0  0  0  0  0  0  0  0  0
  -15.4216   32.6655  -28.8994 C   0  0  0  0  0  0  0  0  0  0  0  0
  -16.0210   31.8756  -28.0459 C   0  0  0  0  0  0  0  0  0  0  0  0
  -16.5787   32.7302  -27.0279 C   0  0  0  0  0  0  0  0  0  0  0  0
  1  2  2  0
  2  3  1  0
  2  4  1  0
  3  5  1  0
  3  6  1  0
  4  7  2  0
  7  8  1  0
  5  9  2  0
  7  9  1  0
  4 10  1  0
  8 11  1  0
 11 12  1  0
 11 13  1  0
  8 14  1  0
 10 15  2  0
 14 15  1  0
 12 16  1  0
 16 17  1  0
 17 18  1  0
 18 19  1  0
 16 20  1  0
 19 20  1  0
M  END
