
     RDKit          3D

 13 13  0  0  0  0  0  0  0  0999 V2000
  -16.3124   34.7008  -27.8652 C   0  0  0  0  0  0  0  0  0  0  0  0
  -16.4306   35.2041  -26.6408 C   0  0  0  0  0  0  0  0  0  0  0  0
  -16.5138   33.4839  -27.9147 C   0  0  0  0  0  0  0  0  0  0  0  0
  -16.8962   34.5142  -25.5282 C   0  0  0  0  0  0  0  0  0  0  0  0
  -17.0463   35.1963  -24.2208 C   0  0  0  0  0  0  0  0  0  0  0  0
  -17.2189   33.2043  -25.6699 C   0  0  0  0  0  0  0  0  0  0  0  0
  -16.2519   36.0762  -23.8482 O   0  0  0  0  0  0  0  0  0  0  0  0
  -18.0818   34.8301  -23.5060 N   0  0  0  0  0  0  0  0  0  0  0  0
  -18.2376   35.3877  -22.1367 C   0  0  0  0  0  0  0  0  0  0  0  0
  -17.0075   32.6225  -26.9513 C   0  0  0  0  0  0  0  0  0  0  0  0
  -19.4030   34.8667  -21.4765 C   0  0  0  0  0  0  0  0  0  0  0  0
  -19.2376   34.3522  -20.3338 O   0  0  0  0  0  0  0  0  0  0  0  0
  -20.4309   34.7396  -22.0976 O   0  0  0  0  0  0  0  0  0  0  0  0
  1  2  1  0
  1  3  2  0
  2  4  2  0
  4  5  1  0
  4  6  1  0
  5  7  2  0
  5  8  1  0
  8  9  1  0
  3 10  1  0
  6 10  2  0
  9 11  1  0
 11 12  2  0
 11 13  1  0
M  END
