
     RDKit          3D

 20 19  0  0  0  0  0  0  0  0999 V2000
  -16.3474   36.4961  -20.6363 O   0  0  0  0  0  0  0  0  0  0  0  0
  -17.7051   36.9438  -21.1925 P   0  0  0  0  0  0  0  0  0  0  0  0
  -17.7820   36.2280  -22.5043 O   0  0  0  0  0  0  0  0  0  0  0  0
  -17.0522   36.1398  -23.7776 C   0  0  0  0  0  0  0  0  0  0  0  0
  -17.0656   35.0115  -24.5074 C   0  0  0  0  0  0  0  0  0  0  0  0
  -18.8525   36.3857  -20.3470 O   0  0  0  0  0  0  0  0  0  0  0  0
  -17.8570   38.3649  -21.4676 O   0  0  0  0  0  0  0  0  0  0  0  0
  -15.9073   34.3431  -24.8170 C   0  0  0  0  0  0  0  0  0  0  0  0
  -18.0820   34.5572  -25.0777 O   0  0  0  0  0  0  0  0  0  0  0  0
  -14.9711   34.9518  -25.4657 O   0  0  0  0  0  0  0  0  0  0  0  0
  -16.1424   33.0096  -25.5705 C   0  0  0  0  0  0  0  0  0  0  0  0
  -16.8504   33.0031  -26.6685 C   0  0  0  0  0  0  0  0  0  0  0  0
  -16.3876   31.7836  -24.7919 O   0  0  0  0  0  0  0  0  0  0  0  0
  -16.2437   31.7189  -23.4641 C   0  0  0  0  0  0  0  0  0  0  0  0
  -16.6395   30.3485  -22.9043 C   0  0  0  0  0  0  0  0  0  0  0  0
  -15.7198   29.5358  -22.3791 C   0  0  0  0  0  0  0  0  0  0  0  0
  -15.8998   28.3436  -22.1202 O   0  0  0  0  0  0  0  0  0  0  0  0
  -17.8507   30.4500  -22.1907 O   0  0  0  0  0  0  0  0  0  0  0  0
  -14.4737   29.8463  -22.5367 O   0  0  0  0  0  0  0  0  0  0  0  0
  -16.1227   33.1729  -27.9075 O   0  0  0  0  0  0  0  0  0  0  0  0
  1  2  1  0
  2  3  1  0
  3  4  1  0
  4  5  1  0
  2  6  2  0
  2  7  1  0
  5  8  1  0
  5  9  2  0
  8 10  1  0
  8 11  1  0
 11 12  1  0
 11 13  1  0
 13 14  1  0
 14 15  1  0
 15 16  1  0
 16 17  2  0
 15 18  1  0
 16 19  1  0
 12 20  1  0
M  END
