
     RDKit          3D

 20 21  0  0  0  0  0  0  0  0999 V2000
  -16.5264   36.7113  -20.8172 O   0  0  0  0  0  0  0  0  0  0  0  0
  -17.2741   36.7620  -21.9915 P   0  0  0  0  0  0  0  0  0  0  0  0
  -16.8012   37.7049  -22.8892 O   0  0  0  0  0  0  0  0  0  0  0  0
  -17.1280   35.3457  -22.5626 O   0  0  0  0  0  0  0  0  0  0  0  0
  -16.7443   35.0402  -23.9486 C   0  0  0  0  0  0  0  0  0  0  0  0
  -18.8047   37.0778  -21.7638 O   0  0  0  0  0  0  0  0  0  0  0  0
  -17.2334   33.6918  -24.2771 C   0  0  0  0  0  0  0  0  0  0  0  0
  -18.4619   33.5285  -24.3307 O   0  0  0  0  0  0  0  0  0  0  0  0
  -16.5243   33.5056  -25.6585 C   0  0  0  0  0  0  0  0  0  0  0  0
  -18.8795   32.1916  -24.3483 C   0  0  0  0  0  0  0  0  0  0  0  0
  -16.4499   34.7205  -26.2655 C   0  0  0  0  0  0  0  0  0  0  0  0
  -17.1755   32.5952  -26.5262 C   0  0  0  0  0  0  0  0  0  0  0  0
  -18.4370   31.3949  -23.2826 C   0  0  0  0  0  0  0  0  0  0  0  0
  -18.3292   31.9154  -25.8174 C   0  0  0  0  0  0  0  0  0  0  0  0
  -18.9665   31.0787  -26.4992 O   0  0  0  0  0  0  0  0  0  0  0  0
  -19.3196   31.0421  -22.5380 O   0  0  0  0  0  0  0  0  0  0  0  0
  -16.1713   31.7062  -26.9212 O   0  0  0  0  0  0  0  0  0  0  0  0
  -17.1997   31.2849  -22.9465 O   0  0  0  0  0  0  0  0  0  0  0  0
  -15.8717   34.9218  -27.3238 O   0  0  0  0  0  0  0  0  0  0  0  0
  -16.3952   35.7077  -25.2103 C   0  0  0  0  0  0  0  0  0  0  0  0
  1  2  1  0
  2  3  2  0
  2  4  1  0
  4  5  1  0
  2  6  1  0
  5  7  1  0
  7  8  1  0
  7  9  1  0
  8 10  1  0
  9 11  1  0
  9 12  1  0
 10 13  1  0
 10 14  1  0
 12 14  1  0
 14 15  2  0
 13 16  1  0
 12 17  1  0
 13 18  2  0
 11 19  1  0
  5 20  1  0
 11 20  1  0
M  END
