
     RDKit          3D

 20 20  0  0  0  0  0  0  0  0999 V2000
  -16.3898   37.6991  -22.6971 O   0  0  0  0  0  0  0  0  0  0  0  0
  -17.2647   36.8296  -21.9599 P   0  0  0  0  0  0  0  0  0  0  0  0
  -17.0211   36.5852  -20.5789 O   0  0  0  0  0  0  0  0  0  0  0  0
  -17.3031   35.5066  -22.7391 O   0  0  0  0  0  0  0  0  0  0  0  0
  -18.8313   37.2995  -22.0807 O   0  0  0  0  0  0  0  0  0  0  0  0
  -18.2955   34.6669  -23.2691 C   0  0  0  0  0  0  0  0  0  0  0  0
  -18.1276   34.4864  -24.6578 C   0  0  0  0  0  0  0  0  0  0  0  0
  -16.9365   34.8123  -25.1885 C   0  0  0  0  0  0  0  0  0  0  0  0
  -18.5128   32.9553  -24.4775 O   0  0  0  0  0  0  0  0  0  0  0  0
  -15.8164   34.2183  -24.7976 O   0  0  0  0  0  0  0  0  0  0  0  0
  -18.0936   32.2832  -23.5135 C   0  0  0  0  0  0  0  0  0  0  0  0
  -16.9496   34.8140  -26.7453 C   0  0  0  0  0  0  0  0  0  0  0  0
  -15.9072   35.4570  -27.2555 O   0  0  0  0  0  0  0  0  0  0  0  0
  -18.2006   33.2333  -22.4670 C   0  0  0  0  0  0  0  0  0  0  0  0
  -17.8538   30.9802  -23.4603 C   0  0  0  0  0  0  0  0  0  0  0  0
  -18.7786   30.1334  -23.2243 O   0  0  0  0  0  0  0  0  0  0  0  0
  -16.5635   30.7058  -23.4518 N   0  0  0  0  0  0  0  0  0  0  0  0
  -15.5558   31.6677  -23.7818 O   0  0  0  0  0  0  0  0  0  0  0  0
  -16.0958   29.6753  -22.6414 C   0  0  0  0  0  0  0  0  0  0  0  0
  -15.7764   28.8892  -22.0694 N   0  0  0  0  0  0  0  0  0  0  0  0
  1  2  2  0
  2  3  1  0
  2  4  1  0
  2  5  1  0
  4  6  1  0
  6  7  1  0
  7  8  1  0
  7  9  1  0
  8 10  1  0
  9 11  1  0
  8 12  1  0
 12 13  1  0
  6 14  1  0
 11 14  1  0
 11 15  1  0
 15 16  2  0
 15 17  1  0
 17 18  1  0
 17 19  1  0
 19 20  3  0
M  END
