
     RDKit          3D

 21 20  0  0  0  0  0  0  0  0999 V2000
  -16.3474   36.4961  -20.6363 O   0  0  0  0  0  0  0  0  0  0  0  0
  -17.8080   37.0308  -20.6429 P   0  0  0  0  0  0  0  0  0  0  0  0
  -18.6671   36.4180  -19.8047 O   0  0  0  0  0  0  0  0  0  0  0  0
  -18.3069   36.4921  -22.1802 O   0  0  0  0  0  0  0  0  0  0  0  0
  -17.8249   38.4722  -20.5096 O   0  0  0  0  0  0  0  0  0  0  0  0
  -17.5243   35.7189  -23.0990 P   0  0  0  0  0  0  0  0  0  0  0  0
  -17.9841   34.4230  -23.2706 O   0  0  0  0  0  0  0  0  0  0  0  0
  -17.4439   33.3189  -24.0671 C   0  0  0  0  0  0  0  0  0  0  0  0
  -18.0965   32.0919  -23.7460 C   0  0  0  0  0  0  0  0  0  0  0  0
  -19.1606   32.1642  -22.8641 O   0  0  0  0  0  0  0  0  0  0  0  0
  -17.0546   31.0882  -23.3093 C   0  0  0  0  0  0  0  0  0  0  0  0
  -17.6282   36.5250  -24.4393 O   0  0  0  0  0  0  0  0  0  0  0  0
  -15.8024   31.1947  -23.5932 O   0  0  0  0  0  0  0  0  0  0  0  0
  -17.4411   30.2551  -22.3324 O   0  0  0  0  0  0  0  0  0  0  0  0
  -16.0402   35.6505  -22.7319 O   0  0  0  0  0  0  0  0  0  0  0  0
  -17.6727   33.7683  -25.5439 C   0  0  0  0  0  0  0  0  0  0  0  0
  -18.6627   33.1896  -26.0827 O   0  0  0  0  0  0  0  0  0  0  0  0
  -16.3702   33.4118  -26.2571 C   0  0  0  0  0  0  0  0  0  0  0  0
  -16.4624   33.9460  -27.6183 C   0  0  0  0  0  0  0  0  0  0  0  0
  -15.3547   34.0998  -25.5324 O   0  0  0  0  0  0  0  0  0  0  0  0
  -15.7551   34.9946  -27.9761 O   0  0  0  0  0  0  0  0  0  0  0  0
  1  2  1  0
  2  3  1  0
  2  4  1  0
  2  5  2  0
  4  6  1  0
  6  7  1  0
  7  8  1  0
  8  9  1  0
  9 10  1  0
  9 11  1  0
  6 12  2  0
 11 13  2  0
 11 14  1  0
  6 15  1  0
  8 16  1  0
 16 17  1  0
 16 18  1  0
 18 19  1  0
 18 20  1  0
 19 21  1  0
M  END
