
     RDKit          3D

 21 22  0  0  0  0  0  0  0  0999 V2000
  -14.7229   35.1078  -25.3805 O   0  0  0  0  0  0  0  0  0  0  0  0
  -16.0591   34.8928  -25.1531 C   0  0  0  0  0  0  0  0  0  0  0  0
  -16.8422   35.0703  -26.3126 C   0  0  0  0  0  0  0  0  0  0  0  0
  -16.6319   35.5753  -24.0465 C   0  0  0  0  0  0  0  0  0  0  0  0
  -17.7266   35.2726  -23.6432 O   0  0  0  0  0  0  0  0  0  0  0  0
  -16.2310   35.5480  -27.4050 O   0  0  0  0  0  0  0  0  0  0  0  0
  -16.1188   36.6370  -23.6282 O   0  0  0  0  0  0  0  0  0  0  0  0
  -17.3500   33.5738  -26.8222 C   0  0  0  0  0  0  0  0  0  0  0  0
  -16.5793   32.6616  -26.1617 C   0  0  0  0  0  0  0  0  0  0  0  0
  -17.1044   33.3107  -28.2991 O   0  0  0  0  0  0  0  0  0  0  0  0
  -16.3446   33.3482  -24.8287 C   0  0  0  0  0  0  0  0  0  0  0  0
  -17.4103   31.5318  -25.8209 O   0  0  0  0  0  0  0  0  0  0  0  0
  -17.3614   32.8763  -24.0120 O   0  0  0  0  0  0  0  0  0  0  0  0
  -17.6399   31.6262  -24.3770 C   0  0  0  0  0  0  0  0  0  0  0  0
  -18.2953   30.6651  -23.6248 C   0  0  0  0  0  0  0  0  0  0  0  0
  -19.5089   30.7503  -23.6888 O   0  0  0  0  0  0  0  0  0  0  0  0
  -17.6368   29.9378  -22.8189 O   0  0  0  0  0  0  0  0  0  0  0  0
  -16.3387   29.6567  -22.6622 C   0  0  0  0  0  0  0  0  0  0  0  0
  -15.9048   28.4151  -22.2716 C   0  0  0  0  0  0  0  0  0  0  0  0
  -16.5398   27.6601  -21.5183 O   0  0  0  0  0  0  0  0  0  0  0  0
  -14.6899   27.9909  -22.5465 O   0  0  0  0  0  0  0  0  0  0  0  0
  1  2  1  0
  2  3  1  0
  2  4  1  0
  4  5  2  0
  3  6  1  0
  4  7  1  0
  3  8  1  0
  8  9  1  0
  8 10  1  0
  2 11  1  0
  9 11  1  0
  9 12  1  0
 11 13  1  0
 12 14  1  0
 13 14  1  0
 14 15  1  0
 15 16  2  0
 15 17  1  0
 17 18  1  0
 18 19  1  0
 19 20  1  0
 19 21  2  0
M  END
