
     RDKit          3D

 21 22  0  0  0  0  0  0  0  0999 V2000
  -15.8083   32.7177  -28.8896 C   0  0  0  0  0  0  0  0  0  0  0  0
  -15.9633   33.9835  -28.7270 C   0  0  0  0  0  0  0  0  0  0  0  0
  -16.5853   34.4323  -27.5674 C   0  0  0  0  0  0  0  0  0  0  0  0
  -16.7558   35.8047  -27.2732 O   0  0  0  0  0  0  0  0  0  0  0  0
  -17.1850   35.9309  -25.9374 C   0  0  0  0  0  0  0  0  0  0  0  0
  -16.6097   33.5744  -26.4757 C   0  0  0  0  0  0  0  0  0  0  0  0
  -17.5447   36.9157  -25.2890 O   0  0  0  0  0  0  0  0  0  0  0  0
  -15.3303   32.2357  -30.1447 C   0  0  0  0  0  0  0  0  0  0  0  0
  -17.1216   34.5216  -25.4043 C   0  0  0  0  0  0  0  0  0  0  0  0
  -18.3859   34.0477  -24.7353 N   0  0  0  0  0  0  0  0  0  0  0  0
  -15.7360   31.7107  -27.9560 C   0  0  0  0  0  0  0  0  0  0  0  0
  -18.4167   33.1653  -23.7307 C   0  0  0  0  0  0  0  0  0  0  0  0
  -16.4283   32.2081  -26.5316 C   0  0  0  0  0  0  0  0  0  0  0  0
  -18.7634   31.8420  -23.9181 C   0  0  0  0  0  0  0  0  0  0  0  0
  -19.6394   31.3599  -24.5043 O   0  0  0  0  0  0  0  0  0  0  0  0
  -17.9610   30.9160  -23.0513 N   0  0  0  0  0  0  0  0  0  0  0  0
  -16.6729   31.2778  -22.5712 C   0  0  0  0  0  0  0  0  0  0  0  0
  -17.7501   33.5256  -22.5949 O   0  0  0  0  0  0  0  0  0  0  0  0
  -15.9781   29.8327  -22.3310 C   0  0  0  0  0  0  0  0  0  0  0  0
  -14.7470   29.8612  -22.4044 O   0  0  0  0  0  0  0  0  0  0  0  0
  -16.6902   28.8818  -22.1450 O   0  0  0  0  0  0  0  0  0  0  0  0
  1  2  2  0
  2  3  1  0
  3  4  1  0
  4  5  1  0
  3  6  2  0
  5  7  2  0
  1  8  1  0
  5  9  1  0
  6  9  1  0
  9 10  1  0
  1 11  1  0
 10 12  1  0
  6 13  1  0
 11 13  2  0
 12 14  1  0
 14 15  2  0
 14 16  1  0
 16 17  1  0
 12 18  2  0
 17 19  1  0
 19 20  2  0
 19 21  1  0
M  END
