
     RDKit          3D

 14 13  0  0  0  0  0  0  0  0999 V2000
  -16.5264   36.7113  -20.8172 O   0  0  0  0  0  0  0  0  0  0  0  0
  -17.2741   36.7620  -21.9915 P   0  0  0  0  0  0  0  0  0  0  0  0
  -17.1661   35.4582  -22.6589 O   0  0  0  0  0  0  0  0  0  0  0  0
  -17.4416   35.0556  -24.0257 P   0  0  0  0  0  0  0  0  0  0  0  0
  -18.7942   37.2590  -21.8229 O   0  0  0  0  0  0  0  0  0  0  0  0
  -16.6874   37.9447  -22.7779 O   0  0  0  0  0  0  0  0  0  0  0  0
  -16.0206   34.6957  -24.4948 O   0  0  0  0  0  0  0  0  0  0  0  0
  -18.3602   33.7659  -23.9093 O   0  0  0  0  0  0  0  0  0  0  0  0
  -17.7702   32.4597  -24.1528 C   0  0  0  0  0  0  0  0  0  0  0  0
  -18.1594   36.0394  -24.8928 O   0  0  0  0  0  0  0  0  0  0  0  0
  -17.5671   31.6040  -23.2247 C   0  0  0  0  0  0  0  0  0  0  0  0
  -18.7522   31.2732  -22.4048 O   0  0  0  0  0  0  0  0  0  0  0  0
  -17.0410   30.2934  -23.2874 C   0  0  0  0  0  0  0  0  0  0  0  0
  -15.5920   30.2883  -22.9695 O   0  0  0  0  0  0  0  0  0  0  0  0
  1  2  1  0
  2  3  1  0
  3  4  1  0
  2  5  2  0
  2  6  1  0
  4  7  1  0
  4  8  1  0
  8  9  1  0
  4 10  2  0
  9 11  1  0
 11 12  1  0
 11 13  1  0
 13 14  1  0
M  END
