
     RDKit          3D

 14 15  0  0  0  0  0  0  0  0999 V2000
  -16.3124   34.7008  -27.8652 C   0  0  0  0  0  0  0  0  0  0  0  0
  -16.9166   34.2672  -26.6471 C   0  0  0  0  0  0  0  0  0  0  0  0
  -17.0361   33.0418  -26.3300 C   0  0  0  0  0  0  0  0  0  0  0  0
  -17.7064   32.6890  -25.1237 N   0  0  0  0  0  0  0  0  0  0  0  0
  -17.9437   31.4312  -24.7006 C   0  0  0  0  0  0  0  0  0  0  0  0
  -17.5352   35.2137  -25.6798 C   0  0  0  0  0  0  0  0  0  0  0  0
  -17.4583   36.4929  -25.7318 O   0  0  0  0  0  0  0  0  0  0  0  0
  -18.0071   34.6678  -24.4642 N   0  0  0  0  0  0  0  0  0  0  0  0
  -17.9982   33.5649  -24.1303 C   0  0  0  0  0  0  0  0  0  0  0  0
  -18.6205   32.8783  -23.1185 N   0  0  0  0  0  0  0  0  0  0  0  0
  -18.7387   31.5938  -23.3910 C   0  0  0  0  0  0  0  0  0  0  0  0
  -18.5524   30.6924  -22.4552 O   0  0  0  0  0  0  0  0  0  0  0  0
  -15.8839   35.8805  -28.0492 O   0  0  0  0  0  0  0  0  0  0  0  0
  -15.7838   33.7107  -28.5339 O   0  0  0  0  0  0  0  0  0  0  0  0
  1  2  1  0
  2  3  2  0
  3  4  1  0
  4  5  1  0
  2  6  1  0
  6  7  2  0
  6  8  1  0
  4  9  1  0
  8  9  1  0
  9 10  2  0
  5 11  1  0
 10 11  1  0
 11 12  2  0
  1 13  1  0
  1 14  2  0
M  END
