
     RDKit          3D

 22 21  0  0  0  0  0  0  0  0999 V2000
  -15.8083   32.7177  -28.8896 C   0  0  0  0  0  0  0  0  0  0  0  0
  -16.6043   33.3666  -27.9255 C   0  0  0  0  0  0  0  0  0  0  0  0
  -15.1228   33.2549  -29.8372 O   0  0  0  0  0  0  0  0  0  0  0  0
  -15.6546   31.4594  -28.7490 O   0  0  0  0  0  0  0  0  0  0  0  0
  -16.9576   32.6824  -26.7639 C   0  0  0  0  0  0  0  0  0  0  0  0
  -18.3134   32.8943  -26.3237 N   0  0  0  0  0  0  0  0  0  0  0  0
  -16.0663   32.2940  -25.9508 O   0  0  0  0  0  0  0  0  0  0  0  0
  -18.8115   32.1291  -25.1761 C   0  0  0  0  0  0  0  0  0  0  0  0
  -19.0712   34.1992  -26.4534 C   0  0  0  0  0  0  0  0  0  0  0  0
  -19.0409   35.0513  -25.4748 C   0  0  0  0  0  0  0  0  0  0  0  0
  -17.9078   35.5256  -24.9676 N   0  0  0  0  0  0  0  0  0  0  0  0
  -17.9622   31.6446  -24.1713 C   0  0  0  0  0  0  0  0  0  0  0  0
  -17.6149   35.9926  -23.7227 C   0  0  0  0  0  0  0  0  0  0  0  0
  -18.6046   35.9642  -22.8705 O   0  0  0  0  0  0  0  0  0  0  0  0
  -16.4488   36.7468  -23.4622 N   0  0  0  0  0  0  0  0  0  0  0  0
  -18.4920   30.6963  -23.2817 C   0  0  0  0  0  0  0  0  0  0  0  0
  -17.6365   30.1477  -22.3643 N   0  0  0  0  0  0  0  0  0  0  0  0
  -16.2782   29.7945  -22.6881 C   0  0  0  0  0  0  0  0  0  0  0  0
  -16.3228   37.1747  -22.1956 O   0  0  0  0  0  0  0  0  0  0  0  0
  -15.4820   30.4226  -23.3605 O   0  0  0  0  0  0  0  0  0  0  0  0
  -15.8390   28.8130  -21.7371 O   0  0  0  0  0  0  0  0  0  0  0  0
  -14.8734   27.9376  -22.3655 C   0  0  0  0  0  0  0  0  0  0  0  0
  1  2  1  0
  1  3  2  0
  1  4  1  0
  2  5  1  0
  5  6  1  0
  5  7  2  0
  6  8  1  0
  6  9  1  0
  9 10  1  0
 10 11  1  0
  8 12  1  0
 11 13  1  0
 13 14  2  0
 13 15  1  0
 12 16  1  0
 16 17  1  0
 17 18  1  0
 15 19  1  0
 18 20  2  0
 18 21  1  0
 21 22  1  0
M  END
