
     RDKit          3D

 22 22  0  0  0  0  0  0  0  0999 V2000
  -16.5264   36.7113  -20.8172 O   0  0  0  0  0  0  0  0  0  0  0  0
  -17.2741   36.7620  -21.9915 P   0  0  0  0  0  0  0  0  0  0  0  0
  -17.1661   35.4582  -22.6589 O   0  0  0  0  0  0  0  0  0  0  0  0
  -17.4416   35.0556  -24.0257 C   0  0  0  0  0  0  0  0  0  0  0  0
  -16.6825   37.8027  -22.9437 O   0  0  0  0  0  0  0  0  0  0  0  0
  -17.0367   33.7446  -24.2711 C   0  0  0  0  0  0  0  0  0  0  0  0
  -18.7519   37.2375  -21.6649 O   0  0  0  0  0  0  0  0  0  0  0  0
  -16.0742   33.5318  -25.2107 N   0  0  0  0  0  0  0  0  0  0  0  0
  -16.4500   33.4787  -26.6040 C   0  0  0  0  0  0  0  0  0  0  0  0
  -16.2112   34.3265  -27.4287 N   0  0  0  0  0  0  0  0  0  0  0  0
  -17.3314   32.3477  -26.9805 N   0  0  0  0  0  0  0  0  0  0  0  0
  -16.6588   34.3074  -28.7056 C   0  0  0  0  0  0  0  0  0  0  0  0
  -17.5489   32.5985  -23.6474 C   0  0  0  0  0  0  0  0  0  0  0  0
  -18.8456   32.5500  -23.1390 C   0  0  0  0  0  0  0  0  0  0  0  0
  -16.8762   31.3664  -23.8502 C   0  0  0  0  0  0  0  0  0  0  0  0
  -19.4300   33.6545  -22.6623 O   0  0  0  0  0  0  0  0  0  0  0  0
  -17.2823   30.2116  -23.1707 C   0  0  0  0  0  0  0  0  0  0  0  0
  -19.1436   31.3729  -22.2984 C   0  0  0  0  0  0  0  0  0  0  0  0
  -16.3585   29.0718  -23.1778 C   0  0  0  0  0  0  0  0  0  0  0  0
  -18.3880   30.2676  -22.4079 N   0  0  0  0  0  0  0  0  0  0  0  0
  -16.7131   27.9845  -22.6077 O   0  0  0  0  0  0  0  0  0  0  0  0
  -15.0515   29.2874  -22.8375 O   0  0  0  0  0  0  0  0  0  0  0  0
  1  2  1  0
  2  3  1  0
  3  4  1  0
  2  5  2  0
  4  6  1  0
  2  7  1  0
  6  8  1  0
  8  9  1  0
  9 10  2  3
  9 11  1  0
 10 12  1  0
  6 13  2  3
 13 14  1  0
 13 15  1  0
 14 16  1  0
 15 17  2  0
 14 18  1  0
 17 19  1  0
 17 20  1  0
 18 20  2  0
 19 21  2  0
 19 22  1  0
M  END
