
     RDKit          3D

 14 14  0  0  0  0  0  0  0  0999 V2000
  -18.2926   30.0455  -22.6046 O   0  0  0  0  0  0  0  0  0  0  0  0
  -17.3348   30.7058  -22.9484 C   0  0  0  0  0  0  0  0  0  0  0  0
  -15.9973   30.4232  -22.8762 N   0  0  0  0  0  0  0  0  0  0  0  0
  -17.6594   32.1156  -23.4700 C   0  0  0  0  0  0  0  0  0  0  0  0
  -15.0420   31.2296  -23.4128 C   0  0  0  0  0  0  0  0  0  0  0  0
  -19.1104   32.4853  -23.5484 O   0  0  0  0  0  0  0  0  0  0  0  0
  -16.7777   32.9060  -24.0863 C   0  0  0  0  0  0  0  0  0  0  0  0
  -15.4084   32.4343  -24.0615 N   0  0  0  0  0  0  0  0  0  0  0  0
  -17.0388   34.1232  -24.6902 N   0  0  0  0  0  0  0  0  0  0  0  0
  -16.2055   34.7368  -25.5667 C   0  0  0  0  0  0  0  0  0  0  0  0
  -16.3411   34.0454  -26.9445 C   0  0  0  0  0  0  0  0  0  0  0  0
  -16.5871   36.0561  -25.6680 O   0  0  0  0  0  0  0  0  0  0  0  0
  -15.6211   29.1948  -22.2664 C   0  0  0  0  0  0  0  0  0  0  0  0
  -16.1407   34.8861  -28.0434 O   0  0  0  0  0  0  0  0  0  0  0  0
  1  2  2  0
  2  3  1  0
  2  4  1  0
  3  5  1  0
  4  6  1  0
  4  7  2  0
  5  8  2  0
  7  8  1  0
  7  9  1  0
  9 10  1  0
 10 11  1  0
 10 12  1  0
  3 13  1  0
 11 14  1  0
M  END
