
     RDKit          3D

 22 23  0  0  0  0  0  0  0  0999 V2000
  -19.3446   30.8550  -22.3508 O   0  0  0  0  0  0  0  0  0  0  0  0
  -18.7300   31.9008  -22.5517 C   0  0  0  0  0  0  0  0  0  0  0  0
  -19.0880   32.9878  -21.7764 C   0  0  0  0  0  0  0  0  0  0  0  0
  -17.9351   32.0100  -23.5396 N   0  0  0  0  0  0  0  0  0  0  0  0
  -17.2697   33.1578  -23.9529 C   0  0  0  0  0  0  0  0  0  0  0  0
  -17.3443   30.6717  -23.8695 C   0  0  0  0  0  0  0  0  0  0  0  0
  -17.7458   34.3718  -23.3958 C   0  0  0  0  0  0  0  0  0  0  0  0
  -16.4657   33.0672  -25.2223 C   0  0  0  0  0  0  0  0  0  0  0  0
  -20.0069   33.0333  -20.8117 O   0  0  0  0  0  0  0  0  0  0  0  0
  -17.0711   29.8820  -22.6095 C   0  0  0  0  0  0  0  0  0  0  0  0
  -16.8207   32.6635  -26.3698 C   0  0  0  0  0  0  0  0  0  0  0  0
  -18.6010   34.2327  -22.3219 C   0  0  0  0  0  0  0  0  0  0  0  0
  -15.2878   33.8777  -25.1845 N   0  0  0  0  0  0  0  0  0  0  0  0
  -16.2199   32.9607  -27.5315 C   0  0  0  0  0  0  0  0  0  0  0  0
  -15.5377   30.0410  -22.2755 C   0  0  0  0  0  0  0  0  0  0  0  0
  -14.9789   28.7535  -22.0812 O   0  0  0  0  0  0  0  0  0  0  0  0
  -16.6370   32.3458  -28.8019 C   0  0  0  0  0  0  0  0  0  0  0  0
  -15.1156   33.7892  -27.5809 C   0  0  0  0  0  0  0  0  0  0  0  0
  -15.7519   31.5570  -29.1732 O   0  0  0  0  0  0  0  0  0  0  0  0
  -14.5544   34.2005  -28.6563 F   0  0  0  0  0  0  0  0  0  0  0  0
  -14.6954   34.2313  -26.3274 C   0  0  0  0  0  0  0  0  0  0  0  0
  -17.4452   33.0596  -29.4597 O   0  0  0  0  0  0  0  0  0  0  0  0
  1  2  2  0
  2  3  1  0
  2  4  1  0
  4  5  1  0
  4  6  1  0
  5  7  2  0
  5  8  1  0
  3  9  1  0
  6 10  1  0
  8 11  1  0
  3 12  2  0
  7 12  1  0
  8 13  2  0
 11 14  2  0
 10 15  1  0
 15 16  1  0
 14 17  1  0
 14 18  1  0
 17 19  2  0
 18 20  1  0
 13 21  1  0
 18 21  2  0
 17 22  1  0
M  END
