
     RDKit          3D

 22 21  0  0  0  0  0  0  0  0999 V2000
  -15.8083   32.7177  -28.8896 C   0  0  0  0  0  0  0  0  0  0  0  0
  -16.6043   33.3666  -27.9255 C   0  0  0  0  0  0  0  0  0  0  0  0
  -15.1228   33.2549  -29.8372 O   0  0  0  0  0  0  0  0  0  0  0  0
  -15.6546   31.4594  -28.7490 O   0  0  0  0  0  0  0  0  0  0  0  0
  -16.9576   32.6824  -26.7639 C   0  0  0  0  0  0  0  0  0  0  0  0
  -18.3134   32.8943  -26.3237 N   0  0  0  0  0  0  0  0  0  0  0  0
  -16.0663   32.2940  -25.9508 O   0  0  0  0  0  0  0  0  0  0  0  0
  -18.8115   32.1291  -25.1761 C   0  0  0  0  0  0  0  0  0  0  0  0
  -19.0712   34.1992  -26.4534 C   0  0  0  0  0  0  0  0  0  0  0  0
  -19.0409   35.0513  -25.4748 C   0  0  0  0  0  0  0  0  0  0  0  0
  -17.9078   35.5256  -24.9676 N   0  0  0  0  0  0  0  0  0  0  0  0
  -17.9622   31.6446  -24.1713 C   0  0  0  0  0  0  0  0  0  0  0  0
  -19.9827   35.2249  -24.6181 O   0  0  0  0  0  0  0  0  0  0  0  0
  -18.4543   30.6643  -23.3049 C   0  0  0  0  0  0  0  0  0  0  0  0
  -19.6982   30.5034  -23.2384 O   0  0  0  0  0  0  0  0  0  0  0  0
  -17.7734   36.4946  -23.9459 C   0  0  0  0  0  0  0  0  0  0  0  0
  -18.1021   35.9220  -22.6289 C   0  0  0  0  0  0  0  0  0  0  0  0
  -17.5500   30.2849  -22.3765 N   0  0  0  0  0  0  0  0  0  0  0  0
  -16.7078   29.3092  -22.5395 C   0  0  0  0  0  0  0  0  0  0  0  0
  -17.6058   36.5832  -21.5146 O   0  0  0  0  0  0  0  0  0  0  0  0
  -15.2496   29.7074  -22.3111 C   0  0  0  0  0  0  0  0  0  0  0  0
  -14.3659   28.5924  -22.4479 O   0  0  0  0  0  0  0  0  0  0  0  0
  1  2  1  0
  1  3  2  0
  1  4  1  0
  2  5  1  0
  5  6  1  0
  5  7  2  0
  6  8  1  0
  6  9  1  0
  9 10  1  0
 10 11  1  0
  8 12  1  0
 10 13  2  0
 12 14  1  0
 14 15  2  0
 11 16  1  0
 16 17  1  0
 14 18  1  0
 18 19  1  0
 17 20  1  0
 19 21  1  0
 21 22  1  0
M  END
