
     RDKit          3D

 22 23  0  0  0  0  0  0  0  0999 V2000
  -16.3124   34.7008  -27.8652 C   0  0  0  0  0  0  0  0  0  0  0  0
  -16.4306   35.2041  -26.6408 C   0  0  0  0  0  0  0  0  0  0  0  0
  -16.5138   33.4839  -27.9147 C   0  0  0  0  0  0  0  0  0  0  0  0
  -16.8962   34.5142  -25.5282 C   0  0  0  0  0  0  0  0  0  0  0  0
  -17.0463   35.1963  -24.2208 C   0  0  0  0  0  0  0  0  0  0  0  0
  -17.2189   33.2043  -25.6699 C   0  0  0  0  0  0  0  0  0  0  0  0
  -16.2519   36.0762  -23.8482 O   0  0  0  0  0  0  0  0  0  0  0  0
  -18.0818   34.8301  -23.5060 N   0  0  0  0  0  0  0  0  0  0  0  0
  -16.9430   32.6065  -26.9413 C   0  0  0  0  0  0  0  0  0  0  0  0
  -18.3752   35.3901  -22.1531 C   0  0  0  0  0  0  0  0  0  0  0  0
  -19.5146   35.7886  -21.9822 C   0  0  0  0  0  0  0  0  0  0  0  0
  -20.5120   35.1815  -22.4996 O   0  0  0  0  0  0  0  0  0  0  0  0
  -19.7423   36.8596  -21.2138 O   0  0  0  0  0  0  0  0  0  0  0  0
  -17.7475   32.3112  -24.6546 N   0  0  0  0  0  0  0  0  0  0  0  0
  -19.0938   32.0354  -24.6883 C   0  0  0  0  0  0  0  0  0  0  0  0
  -19.4063   30.9977  -23.7033 C   0  0  0  0  0  0  0  0  0  0  0  0
  -16.8042   31.4991  -23.9467 C   0  0  0  0  0  0  0  0  0  0  0  0
  -17.6914   30.6054  -23.0700 C   0  0  0  0  0  0  0  0  0  0  0  0
  -17.2992   29.3479  -22.9531 O   0  0  0  0  0  0  0  0  0  0  0  0
  -16.0078   29.1353  -22.4313 C   0  0  0  0  0  0  0  0  0  0  0  0
  -15.6001   27.8703  -22.1895 C   0  0  0  0  0  0  0  0  0  0  0  0
  -15.5647   30.1820  -21.7414 O   0  0  0  0  0  0  0  0  0  0  0  0
  1  2  1  0
  1  3  2  0
  2  4  2  0
  4  5  1  0
  4  6  1  0
  5  7  2  0
  5  8  1  0
  3  9  1  0
  6  9  2  0
  8 10  1  0
 10 11  1  0
 11 12  2  0
 11 13  1  0
  6 14  1  0
 14 15  1  0
 15 16  1  0
 14 17  1  0
 16 18  1  0
 17 18  1  0
 18 19  1  0
 19 20  1  0
 20 21  1  0
 20 22  2  0
M  END
