
     RDKit          3D

 22 23  0  0  0  0  0  0  0  0999 V2000
  -16.3474   36.4961  -20.6363 O   0  0  0  0  0  0  0  0  0  0  0  0
  -17.7051   36.9438  -21.1925 P   0  0  0  0  0  0  0  0  0  0  0  0
  -17.7820   36.2280  -22.5043 O   0  0  0  0  0  0  0  0  0  0  0  0
  -18.8331   36.3525  -20.2709 O   0  0  0  0  0  0  0  0  0  0  0  0
  -17.3241   35.0623  -23.0663 C   0  0  0  0  0  0  0  0  0  0  0  0
  -17.8513   38.3874  -21.1484 O   0  0  0  0  0  0  0  0  0  0  0  0
  -17.4787   34.8959  -24.4021 C   0  0  0  0  0  0  0  0  0  0  0  0
  -16.2007   34.8569  -25.0976 C   0  0  0  0  0  0  0  0  0  0  0  0
  -18.2721   33.5876  -24.6039 O   0  0  0  0  0  0  0  0  0  0  0  0
  -16.3371   33.8988  -26.3147 C   0  0  0  0  0  0  0  0  0  0  0  0
  -15.1305   34.1347  -24.6435 O   0  0  0  0  0  0  0  0  0  0  0  0
  -17.7312   33.0782  -25.8573 C   0  0  0  0  0  0  0  0  0  0  0  0
  -18.9328   33.0743  -26.7558 N   0  0  0  0  0  0  0  0  0  0  0  0
  -19.4589   32.0471  -27.1811 C   0  0  0  0  0  0  0  0  0  0  0  0
  -19.4011   34.3379  -27.3569 C   0  0  0  0  0  0  0  0  0  0  0  0
  -19.2974   30.7735  -26.7900 O   0  0  0  0  0  0  0  0  0  0  0  0
  -20.4855   34.2283  -27.9988 C   0  0  0  0  0  0  0  0  0  0  0  0
  -20.5742   32.1125  -27.9899 C   0  0  0  0  0  0  0  0  0  0  0  0
  -21.2360   30.7584  -28.3450 O   0  0  0  0  0  0  0  0  0  0  0  0
  -21.0709   32.9900  -28.3821 C   0  0  0  0  0  0  0  0  0  0  0  0
  -22.1400   33.1726  -29.2271 O   0  0  0  0  0  0  0  0  0  0  0  0
  -16.7109   34.7792  -27.4713 O   0  0  0  0  0  0  0  0  0  0  0  0
  1  2  1  0
  2  3  1  0
  2  4  1  0
  3  5  1  0
  2  6  2  0
  5  7  1  0
  7  8  1  0
  7  9  1  0
  8 10  1  0
  8 11  1  0
  9 12  1  0
 10 12  1  0
 12 13  1  0
 13 14  1  0
 13 15  1  0
 14 16  1  0
 15 17  2  0
 14 18  2  0
 18 19  1  0
 17 20  1  0
 18 20  1  0
 20 21  2  0
 10 22  1  0
M  END
