
     RDKit          3D

 14 14  0  0  0  0  0  0  0  0999 V2000
  -18.9141   30.8564  -22.8484 O   0  0  0  0  0  0  0  0  0  0  0  0
  -17.7244   31.2654  -23.2216 C   0  0  0  0  0  0  0  0  0  0  0  0
  -16.5673   30.5148  -22.9704 C   0  0  0  0  0  0  0  0  0  0  0  0
  -17.5608   32.5331  -23.7413 N   0  0  0  0  0  0  0  0  0  0  0  0
  -15.3383   30.9725  -23.4782 O   0  0  0  0  0  0  0  0  0  0  0  0
  -16.3504   33.0734  -24.3407 C   0  0  0  0  0  0  0  0  0  0  0  0
  -18.7535   33.3619  -24.1408 C   0  0  0  0  0  0  0  0  0  0  0  0
  -16.5360   29.3408  -22.3002 N   0  0  0  0  0  0  0  0  0  0  0  0
  -18.4266   34.4728  -24.9685 C   0  0  0  0  0  0  0  0  0  0  0  0
  -16.8527   34.3987  -25.0451 C   0  0  0  0  0  0  0  0  0  0  0  0
  -18.9883   34.2698  -26.3677 C   0  0  0  0  0  0  0  0  0  0  0  0
  -15.4210   28.5147  -22.2451 C   0  0  0  0  0  0  0  0  0  0  0  0
  -18.9476   35.6944  -24.4586 C   0  0  0  0  0  0  0  0  0  0  0  0
  -16.0454   35.1401  -25.6079 O   0  0  0  0  0  0  0  0  0  0  0  0
  1  2  2  0
  2  3  1  0
  2  4  1  0
  3  5  2  0
  4  6  1  0
  4  7  1  0
  3  8  1  0
  7  9  1  0
  6 10  1  0
  9 10  1  0
  9 11  1  0
  8 12  1  0
  9 13  1  0
 10 14  2  0
M  END
