
     RDKit          3D

  7  6  0  0  0  0  0  0  0  0999 V2000
  -14.7229   35.1078  -25.3805 O   0  0  0  0  0  0  0  0  0  0  0  0
  -16.0591   34.8928  -25.1531 C   0  0  0  0  0  0  0  0  0  0  0  0
  -16.5204   34.5253  -24.1542 O   0  0  0  0  0  0  0  0  0  0  0  0
  -16.9137   35.2926  -26.3870 C   0  0  0  0  0  0  0  0  0  0  0  0
  -16.8135   34.2112  -27.4429 C   0  0  0  0  0  0  0  0  0  0  0  0
  -15.7581   34.3029  -28.3358 O   0  0  0  0  0  0  0  0  0  0  0  0
  -17.9176   33.4729  -27.7831 O   0  0  0  0  0  0  0  0  0  0  0  0
  1  2  1  0
  2  3  2  0
  2  4  1  0
  4  5  1  0
  5  6  1  0
  5  7  2  0
M  END
