
     RDKit          3D

 14 14  0  0  0  0  0  0  0  0999 V2000
  -15.2450   35.0640  -25.5892 O   0  0  0  0  0  0  0  0  0  0  0  0
  -16.4145   34.7756  -25.9187 C   0  0  0  0  0  0  0  0  0  0  0  0
  -16.5979   33.5552  -26.7051 C   0  0  0  0  0  0  0  0  0  0  0  0
  -17.2275   32.6699  -26.2039 C   0  0  0  0  0  0  0  0  0  0  0  0
  -18.5022   32.6147  -26.2084 O   0  0  0  0  0  0  0  0  0  0  0  0
  -17.3123   34.5183  -24.6937 C   0  0  0  0  0  0  0  0  0  0  0  0
  -16.9247   33.0826  -24.6584 C   0  0  0  0  0  0  0  0  0  0  0  0
  -15.5724   32.7883  -24.2654 O   0  0  0  0  0  0  0  0  0  0  0  0
  -16.8110   35.2027  -23.5314 O   0  0  0  0  0  0  0  0  0  0  0  0
  -17.1097   36.6941  -23.1425 P   0  0  0  0  0  0  0  0  0  0  0  0
  -16.6126   36.8710  -21.7570 O   0  0  0  0  0  0  0  0  0  0  0  0
  -18.7585   36.5963  -22.9458 O   0  0  0  0  0  0  0  0  0  0  0  0
  -17.2143   34.1199  -28.0557 O   0  0  0  0  0  0  0  0  0  0  0  0
  -16.6840   37.5912  -24.0544 O   0  0  0  0  0  0  0  0  0  0  0  0
  1  2  1  0
  2  3  1  0
  3  4  1  0
  4  5  1  0
  2  6  1  0
  4  7  1  0
  6  7  1  0
  7  8  1  0
  6  9  1  0
  9 10  1  0
 10 11  1  0
 10 12  1  0
  3 13  1  0
 10 14  2  0
M  END
