
     RDKit          3D

 23 25  0  0  0  0  0  0  0  0999 V2000
  -18.2926   30.0455  -22.6046 O   0  0  0  0  0  0  0  0  0  0  0  0
  -17.3348   30.7058  -22.9484 C   0  0  0  0  0  0  0  0  0  0  0  0
  -15.9973   30.4232  -22.8762 C   0  0  0  0  0  0  0  0  0  0  0  0
  -17.6952   31.9462  -23.6712 N   0  0  0  0  0  0  0  0  0  0  0  0
  -15.5910   29.2113  -22.1676 C   0  0  0  0  0  0  0  0  0  0  0  0
  -15.0266   31.2053  -23.4011 C   0  0  0  0  0  0  0  0  0  0  0  0
  -19.1096   32.2908  -23.8899 C   0  0  0  0  0  0  0  0  0  0  0  0
  -19.3770   32.1451  -25.3644 C   0  0  0  0  0  0  0  0  0  0  0  0
  -15.3462   32.2725  -24.1299 N   0  0  0  0  0  0  0  0  0  0  0  0
  -16.6744   32.6516  -24.2408 C   0  0  0  0  0  0  0  0  0  0  0  0
  -16.9866   33.9793  -24.7987 C   0  0  0  0  0  0  0  0  0  0  0  0
  -15.6033   29.1167  -20.9970 O   0  0  0  0  0  0  0  0  0  0  0  0
  -15.3310   28.0372  -22.7891 O   0  0  0  0  0  0  0  0  0  0  0  0
  -19.3404   33.4939  -26.1147 C   0  0  0  0  0  0  0  0  0  0  0  0
  -17.6613   33.9543  -26.1822 C   0  0  0  0  0  0  0  0  0  0  0  0
  -17.4695   34.9151  -23.8390 C   0  0  0  0  0  0  0  0  0  0  0  0
  -16.9949   33.0266  -27.1477 C   0  0  0  0  0  0  0  0  0  0  0  0
  -17.7427   35.4446  -26.6999 C   0  0  0  0  0  0  0  0  0  0  0  0
  -16.6379   35.6797  -23.2179 O   0  0  0  0  0  0  0  0  0  0  0  0
  -18.6169   34.8092  -23.1106 O   0  0  0  0  0  0  0  0  0  0  0  0
  -16.1895   33.8293  -28.1209 C   0  0  0  0  0  0  0  0  0  0  0  0
  -15.5085   33.5696  -29.0298 O   0  0  0  0  0  0  0  0  0  0  0  0
  -16.5353   35.3147  -27.7367 C   0  0  0  0  0  0  0  0  0  0  0  0
  1  2  2  0
  2  3  1  0
  2  4  1  0
  3  5  1  0
  3  6  2  0
  4  7  1  0
  7  8  1  0
  6  9  1  0
  4 10  1  0
  9 10  2  0
 10 11  1  0
  5 12  1  0
  5 13  2  0
  8 14  1  0
 11 15  1  0
 14 15  1  0
 11 16  1  0
 15 17  1  0
 15 18  1  0
 16 19  2  0
 16 20  1  0
 17 21  1  0
 21 22  2  0
 18 23  1  0
 21 23  1  0
M  END
