
     RDKit          3D

 23 25  0  0  0  0  0  0  0  0999 V2000
  -18.2926   30.0455  -22.6046 O   0  0  0  0  0  0  0  0  0  0  0  0
  -17.3348   30.7058  -22.9484 C   0  0  0  0  0  0  0  0  0  0  0  0
  -15.9973   30.4232  -22.8762 C   0  0  0  0  0  0  0  0  0  0  0  0
  -17.6952   31.9462  -23.6712 N   0  0  0  0  0  0  0  0  0  0  0  0
  -15.5910   29.2113  -22.1676 C   0  0  0  0  0  0  0  0  0  0  0  0
  -15.0266   31.2053  -23.4011 C   0  0  0  0  0  0  0  0  0  0  0  0
  -19.1096   32.2908  -23.8899 C   0  0  0  0  0  0  0  0  0  0  0  0
  -19.3770   32.1451  -25.3644 C   0  0  0  0  0  0  0  0  0  0  0  0
  -15.3462   32.2725  -24.1299 N   0  0  0  0  0  0  0  0  0  0  0  0
  -16.6744   32.6516  -24.2408 C   0  0  0  0  0  0  0  0  0  0  0  0
  -16.9866   33.9793  -24.7987 C   0  0  0  0  0  0  0  0  0  0  0  0
  -15.6033   29.1167  -20.9970 O   0  0  0  0  0  0  0  0  0  0  0  0
  -15.3310   28.0372  -22.7891 O   0  0  0  0  0  0  0  0  0  0  0  0
  -17.3216   33.7838  -26.2593 C   0  0  0  0  0  0  0  0  0  0  0  0
  -16.7000   35.1454  -24.2668 C   0  0  0  0  0  0  0  0  0  0  0  0
  -18.4719   32.9115  -26.6032 C   0  0  0  0  0  0  0  0  0  0  0  0
  -16.1819   33.3276  -27.0745 N   0  0  0  0  0  0  0  0  0  0  0  0
  -17.3328   35.2629  -26.7969 C   0  0  0  0  0  0  0  0  0  0  0  0
  -17.0566   36.0948  -25.4781 C   0  0  0  0  0  0  0  0  0  0  0  0
  -16.4099   35.4986  -23.0549 C   0  0  0  0  0  0  0  0  0  0  0  0
  -16.8151   36.7798  -22.6875 O   0  0  0  0  0  0  0  0  0  0  0  0
  -16.2989   32.4637  -28.0750 C   0  0  0  0  0  0  0  0  0  0  0  0
  -15.1481   32.5459  -28.9753 C   0  0  0  0  0  0  0  0  0  0  0  0
  1  2  2  0
  2  3  1  0
  2  4  1  0
  3  5  1  0
  3  6  2  0
  4  7  1  0
  7  8  1  0
  6  9  1  0
  4 10  1  0
  9 10  2  0
 10 11  1  0
  5 12  1  0
  5 13  2  0
 11 14  1  0
 11 15  2  0
  8 16  1  0
 14 16  1  0
 14 17  1  0
 14 18  1  0
 15 19  1  0
 18 19  1  0
 15 20  1  0
 20 21  1  0
 17 22  1  0
 22 23  1  0
M  END
