
     RDKit          3D

 23 24  0  0  0  0  0  0  0  0999 V2000
  -16.3474   36.4961  -20.6363 O   0  0  0  0  0  0  0  0  0  0  0  0
  -17.8080   37.0308  -20.6429 P   0  0  0  0  0  0  0  0  0  0  0  0
  -18.6671   36.4180  -19.8047 O   0  0  0  0  0  0  0  0  0  0  0  0
  -18.3069   36.4921  -22.1802 O   0  0  0  0  0  0  0  0  0  0  0  0
  -17.4566   35.7810  -23.2334 P   0  0  0  0  0  0  0  0  0  0  0  0
  -18.1439   38.4547  -20.5795 O   0  0  0  0  0  0  0  0  0  0  0  0
  -17.8621   34.5002  -23.3948 O   0  0  0  0  0  0  0  0  0  0  0  0
  -17.2314   36.8118  -24.3056 O   0  0  0  0  0  0  0  0  0  0  0  0
  -17.6513   33.6567  -24.6005 C   0  0  0  0  0  0  0  0  0  0  0  0
  -15.9294   35.6949  -22.5872 O   0  0  0  0  0  0  0  0  0  0  0  0
  -16.4769   32.9319  -24.6731 C   0  0  0  0  0  0  0  0  0  0  0  0
  -18.9819   32.7661  -24.5917 C   0  0  0  0  0  0  0  0  0  0  0  0
  -17.6540   34.5202  -25.8995 C   0  0  0  0  0  0  0  0  0  0  0  0
  -16.5954   31.5208  -24.3981 O   0  0  0  0  0  0  0  0  0  0  0  0
  -16.7298   34.0054  -26.8707 C   0  0  0  0  0  0  0  0  0  0  0  0
  -17.1109   31.1438  -23.1371 C   0  0  0  0  0  0  0  0  0  0  0  0
  -15.8951   33.0996  -26.0212 C   0  0  0  0  0  0  0  0  0  0  0  0
  -17.1623   33.2772  -28.0295 O   0  0  0  0  0  0  0  0  0  0  0  0
  -18.6411   31.3900  -23.4201 C   0  0  0  0  0  0  0  0  0  0  0  0
  -19.4177   30.4340  -23.5756 O   0  0  0  0  0  0  0  0  0  0  0  0
  -16.8225   29.9274  -22.7836 N   0  0  0  0  0  0  0  0  0  0  0  0
  -15.5769   29.6612  -22.3946 C   0  0  0  0  0  0  0  0  0  0  0  0
  -15.3442   28.2551  -22.0329 C   0  0  0  0  0  0  0  0  0  0  0  0
  1  2  1  0
  2  3  1  0
  2  4  1  0
  4  5  1  0
  2  6  2  0
  5  7  1  0
  5  8  2  0
  7  9  1  0
  5 10  1  0
  9 11  1  0
  9 12  1  0
  9 13  1  0
 11 14  1  0
 13 15  1  0
 14 16  1  0
 11 17  1  0
 15 17  1  0
 15 18  1  0
 12 19  1  0
 16 19  1  0
 19 20  1  0
 16 21  1  0
 21 22  1  0
 22 23  1  0
M  END
