
     RDKit          3D

 23 25  0  0  0  0  0  0  0  0999 V2000
  -14.7229   35.1078  -25.3805 O   0  0  0  0  0  0  0  0  0  0  0  0
  -16.0591   34.8928  -25.1531 C   0  0  0  0  0  0  0  0  0  0  0  0
  -16.8422   35.0703  -26.3126 C   0  0  0  0  0  0  0  0  0  0  0  0
  -16.6319   35.5753  -24.0465 C   0  0  0  0  0  0  0  0  0  0  0  0
  -17.7266   35.2726  -23.6432 O   0  0  0  0  0  0  0  0  0  0  0  0
  -16.2310   35.5480  -27.4050 O   0  0  0  0  0  0  0  0  0  0  0  0
  -16.1188   36.6370  -23.6282 O   0  0  0  0  0  0  0  0  0  0  0  0
  -17.3500   33.5738  -26.8222 C   0  0  0  0  0  0  0  0  0  0  0  0
  -16.5793   32.6616  -26.1617 C   0  0  0  0  0  0  0  0  0  0  0  0
  -17.1044   33.3107  -28.2991 O   0  0  0  0  0  0  0  0  0  0  0  0
  -16.3446   33.3482  -24.8287 C   0  0  0  0  0  0  0  0  0  0  0  0
  -17.1609   31.4355  -25.9587 O   0  0  0  0  0  0  0  0  0  0  0  0
  -17.4318   32.9155  -24.0326 O   0  0  0  0  0  0  0  0  0  0  0  0
  -17.7616   31.6853  -23.8848 C   0  0  0  0  0  0  0  0  0  0  0  0
  -18.0964   31.4703  -25.2977 C   0  0  0  0  0  0  0  0  0  0  0  0
  -19.2932   32.4222  -25.4962 O   0  0  0  0  0  0  0  0  0  0  0  0
  -19.7164   32.3008  -26.8766 C   0  0  0  0  0  0  0  0  0  0  0  0
  -17.8549   30.9923  -22.8034 C   0  0  0  0  0  0  0  0  0  0  0  0
  -20.9615   32.4535  -27.1835 C   0  0  0  0  0  0  0  0  0  0  0  0
  -19.0416   33.6282  -27.2183 C   0  0  0  0  0  0  0  0  0  0  0  0
  -16.8796   30.3709  -22.3308 N   0  0  0  0  0  0  0  0  0  0  0  0
  -15.6521   30.4635  -22.3231 C   0  0  0  0  0  0  0  0  0  0  0  0
  -14.8486   29.2333  -22.1018 C   0  0  0  0  0  0  0  0  0  0  0  0
  1  2  1  0
  2  3  1  0
  2  4  1  0
  4  5  2  0
  3  6  1  0
  4  7  1  0
  3  8  1  0
  8  9  1  0
  8 10  1  0
  2 11  1  0
  9 11  1  0
  9 12  1  0
 11 13  1  0
 13 14  1  0
 12 15  1  0
 14 15  1  0
 15 16  1  0
 16 17  1  0
 14 18  2  3
 17 19  1  0
  8 20  1  0
 17 20  1  0
 18 21  1  0
 21 22  1  0
 22 23  1  0
M  END
