
     RDKit          3D

 23 24  0  0  0  0  0  0  0  0999 V2000
  -15.9333   33.3737  -28.3999 O   0  0  0  0  0  0  0  0  0  0  0  0
  -16.7726   33.1245  -27.5037 C   0  0  0  0  0  0  0  0  0  0  0  0
  -17.0463   34.2162  -26.5141 C   0  0  0  0  0  0  0  0  0  0  0  0
  -16.8573   33.8974  -25.2097 C   0  0  0  0  0  0  0  0  0  0  0  0
  -17.8676   33.2726  -24.5441 N   0  0  0  0  0  0  0  0  0  0  0  0
  -19.0285   33.8769  -24.2032 C   0  0  0  0  0  0  0  0  0  0  0  0
  -17.9063   31.8473  -24.5422 C   0  0  0  0  0  0  0  0  0  0  0  0
  -16.5188   35.1676  -24.4802 C   0  0  0  0  0  0  0  0  0  0  0  0
  -18.8604   34.7526  -23.1659 O   0  0  0  0  0  0  0  0  0  0  0  0
  -16.2712   35.4172  -26.8925 O   0  0  0  0  0  0  0  0  0  0  0  0
  -16.9986   31.2235  -23.6589 C   0  0  0  0  0  0  0  0  0  0  0  0
  -15.4589   35.4500  -24.0572 O   0  0  0  0  0  0  0  0  0  0  0  0
  -17.5587   30.2930  -22.7186 C   0  0  0  0  0  0  0  0  0  0  0  0
  -15.5977   31.3858  -23.5952 C   0  0  0  0  0  0  0  0  0  0  0  0
  -16.7061   29.5640  -21.8581 C   0  0  0  0  0  0  0  0  0  0  0  0
  -20.1436   33.6238  -24.6747 O   0  0  0  0  0  0  0  0  0  0  0  0
  -17.1880   28.5923  -21.0900 F   0  0  0  0  0  0  0  0  0  0  0  0
  -17.6419   35.9283  -23.9833 N   0  0  0  0  0  0  0  0  0  0  0  0
  -18.6815   36.0583  -23.3273 C   0  0  0  0  0  0  0  0  0  0  0  0
  -15.3364   29.6347  -21.9797 C   0  0  0  0  0  0  0  0  0  0  0  0
  -14.5988   28.8285  -21.2027 F   0  0  0  0  0  0  0  0  0  0  0  0
  -14.7981   30.6069  -22.8473 C   0  0  0  0  0  0  0  0  0  0  0  0
  -19.3071   37.0110  -22.7283 O   0  0  0  0  0  0  0  0  0  0  0  0
  1  2  1  0
  2  3  1  0
  3  4  1  0
  4  5  1  0
  5  6  1  0
  5  7  1  0
  4  8  1  0
  6  9  1  0
  3 10  1  0
  7 11  1  0
  8 12  2  0
 11 13  2  0
 11 14  1  0
 13 15  1  0
  6 16  2  0
 15 17  1  0
  8 18  1  0
  9 19  1  0
 18 19  1  0
 15 20  2  0
 20 21  1  0
 14 22  2  0
 20 22  1  0
 19 23  2  0
M  END
