
     RDKit          3D

 23 23  0  0  0  0  0  0  0  0999 V2000
  -16.3474   36.4961  -20.6363 O   0  0  0  0  0  0  0  0  0  0  0  0
  -17.8080   37.0308  -20.6429 P   0  0  0  0  0  0  0  0  0  0  0  0
  -18.6671   36.4180  -19.8047 O   0  0  0  0  0  0  0  0  0  0  0  0
  -18.3069   36.4921  -22.1802 O   0  0  0  0  0  0  0  0  0  0  0  0
  -17.8249   38.4722  -20.5096 O   0  0  0  0  0  0  0  0  0  0  0  0
  -17.5243   35.7189  -23.0990 P   0  0  0  0  0  0  0  0  0  0  0  0
  -17.9841   34.4230  -23.2706 O   0  0  0  0  0  0  0  0  0  0  0  0
  -17.4439   33.3189  -24.0671 C   0  0  0  0  0  0  0  0  0  0  0  0
  -18.0965   32.0919  -23.7460 C   0  0  0  0  0  0  0  0  0  0  0  0
  -17.6560   33.7112  -25.5367 C   0  0  0  0  0  0  0  0  0  0  0  0
  -17.2306   31.0763  -23.2918 C   0  0  0  0  0  0  0  0  0  0  0  0
  -15.9479   31.0876  -23.3230 C   0  0  0  0  0  0  0  0  0  0  0  0
  -19.0780   32.2712  -22.6896 O   0  0  0  0  0  0  0  0  0  0  0  0
  -17.7329   29.8570  -22.6556 O   0  0  0  0  0  0  0  0  0  0  0  0
  -15.2768   32.0916  -24.0131 C   0  0  0  0  0  0  0  0  0  0  0  0
  -16.4962   34.1882  -26.1893 C   0  0  0  0  0  0  0  0  0  0  0  0
  -17.6681   36.5004  -24.4509 O   0  0  0  0  0  0  0  0  0  0  0  0
  -18.7629   33.4912  -26.1764 O   0  0  0  0  0  0  0  0  0  0  0  0
  -16.5539   29.2797  -22.4235 N   0  0  0  0  0  0  0  0  0  0  0  0
  -15.5033   29.9322  -22.6022 C   0  0  0  0  0  0  0  0  0  0  0  0
  -16.0319   35.7653  -22.7690 O   0  0  0  0  0  0  0  0  0  0  0  0
  -15.8487   35.1493  -25.8464 O   0  0  0  0  0  0  0  0  0  0  0  0
  -16.3508   33.7516  -27.5821 N   0  0  0  0  0  0  0  0  0  0  0  0
  1  2  1  0
  2  3  1  0
  2  4  1  0
  2  5  2  0
  4  6  1  0
  6  7  1  0
  7  8  1  0
  8  9  1  0
  8 10  1  0
  9 11  1  0
 11 12  2  0
  9 13  1  0
 11 14  1  0
 12 15  1  0
 10 16  1  0
  6 17  2  0
 10 18  2  0
 14 19  1  0
 12 20  1  0
 19 20  2  0
  6 21  1  0
 16 22  2  0
 16 23  1  0
M  END
