
     RDKit          3D

 15 16  0  0  0  0  0  0  0  0999 V2000
  -15.9957   34.1586  -28.5841 N   0  0  0  0  0  0  0  0  0  0  0  0
  -16.6213   33.5872  -27.7403 C   0  0  0  0  0  0  0  0  0  0  0  0
  -17.0769   34.3671  -26.6256 N   0  0  0  0  0  0  0  0  0  0  0  0
  -16.5915   32.4186  -27.5662 N   0  0  0  0  0  0  0  0  0  0  0  0
  -17.6736   33.8250  -25.5870 C   0  0  0  0  0  0  0  0  0  0  0  0
  -18.2937   34.6631  -24.5667 C   0  0  0  0  0  0  0  0  0  0  0  0
  -17.6784   32.4409  -25.4385 C   0  0  0  0  0  0  0  0  0  0  0  0
  -17.1051   31.8592  -26.5256 C   0  0  0  0  0  0  0  0  0  0  0  0
  -18.2327   31.9885  -24.1889 C   0  0  0  0  0  0  0  0  0  0  0  0
  -18.6896   32.7173  -23.2097 C   0  0  0  0  0  0  0  0  0  0  0  0
  -17.9917   30.3530  -23.9076 C   0  0  0  0  0  0  0  0  0  0  0  0
  -16.8543   30.2731  -23.0169 C   0  0  0  0  0  0  0  0  0  0  0  0
  -18.7775   34.0894  -23.4153 C   0  0  0  0  0  0  0  0  0  0  0  0
  -15.7849   30.9893  -23.0307 O   0  0  0  0  0  0  0  0  0  0  0  0
  -16.8856   29.1741  -22.2444 O   0  0  0  0  0  0  0  0  0  0  0  0
  1  2  1  0
  2  3  1  0
  2  4  2  0
  3  5  1  0
  5  6  1  0
  5  7  2  0
  4  8  1  0
  7  8  1  0
  7  9  1  0
  9 10  2  0
  9 11  1  0
 11 12  1  0
  6 13  2  0
 10 13  1  0
 12 14  2  0
 12 15  1  0
M  END
