
     RDKit          3D

 15 15  0  0  0  0  0  0  0  0999 V2000
  -15.9957   34.1586  -28.5841 N   0  0  0  0  0  0  0  0  0  0  0  0
  -16.6213   33.5872  -27.7403 C   0  0  0  0  0  0  0  0  0  0  0  0
  -16.9780   32.3985  -27.7004 N   0  0  0  0  0  0  0  0  0  0  0  0
  -17.6766   32.1378  -26.5130 C   0  0  0  0  0  0  0  0  0  0  0  0
  -17.6460   33.2053  -25.7426 C   0  0  0  0  0  0  0  0  0  0  0  0
  -16.8690   34.3538  -26.4205 C   0  0  0  0  0  0  0  0  0  0  0  0
  -16.5986   35.5406  -25.9459 C   0  0  0  0  0  0  0  0  0  0  0  0
  -16.4581   35.6246  -24.6653 O   0  0  0  0  0  0  0  0  0  0  0  0
  -17.8581   33.0588  -24.2443 C   0  0  0  0  0  0  0  0  0  0  0  0
  -17.8790   31.8341  -23.6177 C   0  0  0  0  0  0  0  0  0  0  0  0
  -16.6983   31.0958  -23.3966 C   0  0  0  0  0  0  0  0  0  0  0  0
  -16.8245   29.8536  -22.7552 N   0  0  0  0  0  0  0  0  0  0  0  0
  -16.8324   36.3203  -26.7873 O   0  0  0  0  0  0  0  0  0  0  0  0
  -15.6881   29.1812  -22.2983 C   0  0  0  0  0  0  0  0  0  0  0  0
  -15.7959   27.8344  -22.0728 C   0  0  0  0  0  0  0  0  0  0  0  0
  1  2  1  0
  2  3  2  0
  3  4  1  0
  4  5  2  0
  2  6  1  0
  5  6  1  0
  6  7  1  0
  7  8  1  0
  5  9  1  0
  9 10  1  0
 10 11  2  3
 11 12  1  0
  7 13  2  0
 12 14  1  0
 14 15  1  0
M  END
