
     RDKit          3D

  8  7  0  0  0  0  0  0  0  0999 V2000
  -14.7229   35.1078  -25.3805 O   0  0  0  0  0  0  0  0  0  0  0  0
  -15.8786   34.8915  -24.8290 C   0  0  0  0  0  0  0  0  0  0  0  0
  -16.7496   33.9812  -25.3997 C   0  0  0  0  0  0  0  0  0  0  0  0
  -16.2499   35.3573  -23.6589 O   0  0  0  0  0  0  0  0  0  0  0  0
  -16.4878   33.5592  -26.6890 C   0  0  0  0  0  0  0  0  0  0  0  0
  -17.8153   33.3982  -24.7637 O   0  0  0  0  0  0  0  0  0  0  0  0
  -16.5306   34.5774  -27.7647 C   0  0  0  0  0  0  0  0  0  0  0  0
  -17.6824   32.4835  -27.0500 C   0  0  0  0  0  0  0  0  0  0  0  0
  1  2  2  0
  2  3  1  0
  2  4  1  0
  3  5  1  0
  3  6  2  0
  5  7  1  0
  5  8  1  0
M  END
