
     RDKit          3D

 15 16  0  0  0  0  0  0  0  0999 V2000
  -15.2450   35.0640  -25.5892 O   0  0  0  0  0  0  0  0  0  0  0  0
  -16.4145   34.7756  -25.9187 C   0  0  0  0  0  0  0  0  0  0  0  0
  -16.5979   33.5552  -26.7051 C   0  0  0  0  0  0  0  0  0  0  0  0
  -17.2275   32.6699  -26.2039 C   0  0  0  0  0  0  0  0  0  0  0  0
  -18.5022   32.6147  -26.2084 O   0  0  0  0  0  0  0  0  0  0  0  0
  -17.3123   34.5183  -24.6937 C   0  0  0  0  0  0  0  0  0  0  0  0
  -16.9247   33.0826  -24.6584 C   0  0  0  0  0  0  0  0  0  0  0  0
  -17.8157   32.1978  -23.7867 N   0  0  0  0  0  0  0  0  0  0  0  0
  -18.6159   34.9277  -24.8869 O   0  0  0  0  0  0  0  0  0  0  0  0
  -19.1063   32.3145  -23.6382 C   0  0  0  0  0  0  0  0  0  0  0  0
  -16.5104   33.6233  -28.1210 O   0  0  0  0  0  0  0  0  0  0  0  0
  -17.2186   30.9678  -23.4360 C   0  0  0  0  0  0  0  0  0  0  0  0
  -19.5579   31.1854  -22.8577 N   0  0  0  0  0  0  0  0  0  0  0  0
  -16.0143   30.5336  -23.2924 N   0  0  0  0  0  0  0  0  0  0  0  0
  -18.4223   30.3842  -22.6489 N   0  0  0  0  0  0  0  0  0  0  0  0
  1  2  1  0
  2  3  1  0
  3  4  1  0
  4  5  1  0
  2  6  1  0
  4  7  1  0
  6  7  1  0
  7  8  1  0
  6  9  1  0
  8 10  1  0
  3 11  1  0
  8 12  1  0
 10 13  2  0
 12 14  1  0
 12 15  2  0
 13 15  1  0
M  END
