
     RDKit          3D

 15 15  0  0  0  0  0  0  0  0999 V2000
  -16.1810   35.0017  -28.1441 C   0  0  0  0  0  0  0  0  0  0  0  0
  -16.4180   35.4198  -26.9615 C   0  0  0  0  0  0  0  0  0  0  0  0
  -16.7704   34.2981  -26.0381 C   0  0  0  0  0  0  0  0  0  0  0  0
  -16.5446   34.4564  -24.6816 C   0  0  0  0  0  0  0  0  0  0  0  0
  -17.3218   33.1525  -26.5440 C   0  0  0  0  0  0  0  0  0  0  0  0
  -17.6375   32.0797  -25.6734 C   0  0  0  0  0  0  0  0  0  0  0  0
  -16.8445   33.3965  -23.7847 C   0  0  0  0  0  0  0  0  0  0  0  0
  -17.4678   32.2615  -24.4361 C   0  0  0  0  0  0  0  0  0  0  0  0
  -17.7501   31.0755  -23.4109 C   0  0  0  0  0  0  0  0  0  0  0  0
  -18.9611   30.9149  -23.0652 O   0  0  0  0  0  0  0  0  0  0  0  0
  -16.7209   30.5380  -22.6908 N   0  0  0  0  0  0  0  0  0  0  0  0
  -15.3127   30.8276  -22.9628 C   0  0  0  0  0  0  0  0  0  0  0  0
  -14.8689   31.6980  -23.6645 O   0  0  0  0  0  0  0  0  0  0  0  0
  -14.6434   29.8505  -22.2712 O   0  0  0  0  0  0  0  0  0  0  0  0
  -15.0623   28.4128  -22.2391 C   0  0  0  0  0  0  0  0  0  0  0  0
  1  2  1  0
  2  3  1  0
  3  4  1  0
  3  5  2  0
  5  6  1  0
  4  7  2  0
  6  8  2  0
  7  8  1  0
  8  9  1  0
  9 10  2  0
  9 11  1  0
 11 12  1  0
 12 13  2  0
 12 14  1  0
 14 15  1  0
M  END
