
     RDKit          3D

 15 14  0  0  0  0  0  0  0  0999 V2000
  -15.1675   28.5144  -22.7967 O   0  0  0  0  0  0  0  0  0  0  0  0
  -15.9549   28.8606  -21.9693 C   0  0  0  0  0  0  0  0  0  0  0  0
  -16.3984   30.1366  -22.0659 N   0  0  0  0  0  0  0  0  0  0  0  0
  -17.5198   30.5090  -22.7530 C   0  0  0  0  0  0  0  0  0  0  0  0
  -16.5626   28.0128  -21.0962 N   0  0  0  0  0  0  0  0  0  0  0  0
  -18.7010   30.0970  -22.5863 O   0  0  0  0  0  0  0  0  0  0  0  0
  -17.5225   31.9384  -23.4175 C   0  0  0  0  0  0  0  0  0  0  0  0
  -16.5549   32.0085  -24.5086 C   0  0  0  0  0  0  0  0  0  0  0  0
  -16.6357   33.2255  -25.2751 C   0  0  0  0  0  0  0  0  0  0  0  0
  -15.8181   34.2776  -24.7584 C   0  0  0  0  0  0  0  0  0  0  0  0
  -16.3989   32.9091  -26.7122 C   0  0  0  0  0  0  0  0  0  0  0  0
  -16.6058   34.2209  -27.5881 C   0  0  0  0  0  0  0  0  0  0  0  0
  -15.9297   33.9355  -28.7821 O   0  0  0  0  0  0  0  0  0  0  0  0
  -14.5482   34.1922  -24.8617 O   0  0  0  0  0  0  0  0  0  0  0  0
  -16.3961   35.3262  -24.2857 N   0  0  0  0  0  0  0  0  0  0  0  0
  1  2  2  0
  2  3  1  0
  3  4  1  0
  2  5  1  0
  4  6  2  0
  4  7  1  0
  7  8  1  0
  8  9  1  0
  9 10  1  0
  9 11  1  0
 11 12  1  0
 12 13  1  0
 10 14  2  0
 10 15  1  0
M  END
