
     RDKit          3D

 15 14  0  0  0  0  0  0  0  0999 V2000
  -15.9957   34.1586  -28.5841 O   0  0  0  0  0  0  0  0  0  0  0  0
  -16.8376   34.1320  -27.5703 C   0  0  0  0  0  0  0  0  0  0  0  0
  -16.6345   34.9804  -26.5603 C   0  0  0  0  0  0  0  0  0  0  0  0
  -15.5701   34.9308  -25.8885 O   0  0  0  0  0  0  0  0  0  0  0  0
  -17.7335   34.5366  -25.3714 C   0  0  0  0  0  0  0  0  0  0  0  0
  -17.3358   33.7051  -24.5170 N   0  0  0  0  0  0  0  0  0  0  0  0
  -18.2695   32.8896  -23.7860 C   0  0  0  0  0  0  0  0  0  0  0  0
  -19.4766   33.2305  -23.7365 O   0  0  0  0  0  0  0  0  0  0  0  0
  -17.9323   31.8157  -22.8613 C   0  0  0  0  0  0  0  0  0  0  0  0
  -18.8473   31.1279  -22.1135 O   0  0  0  0  0  0  0  0  0  0  0  0
  -16.7423   31.2154  -22.8158 N   0  0  0  0  0  0  0  0  0  0  0  0
  -16.3672   30.0079  -22.2011 C   0  0  0  0  0  0  0  0  0  0  0  0
  -15.2067   29.3492  -22.7642 C   0  0  0  0  0  0  0  0  0  0  0  0
  -14.4676   29.9833  -23.4305 O   0  0  0  0  0  0  0  0  0  0  0  0
  -15.1196   28.0413  -22.5528 O   0  0  0  0  0  0  0  0  0  0  0  0
  1  2  1  0
  2  3  1  0
  3  4  1  0
  3  5  1  0
  5  6  1  0
  6  7  1  0
  7  8  2  0
  7  9  1  0
  9 10  2  0
  9 11  1  0
 11 12  1  0
 12 13  1  0
 13 14  2  0
 13 15  1  0
M  END
