
     RDKit          3D

 15 15  0  0  0  0  0  0  0  0999 V2000
  -14.7852   31.5926  -24.1597 O   0  0  0  0  0  0  0  0  0  0  0  0
  -16.1181   31.5011  -23.8596 C   0  0  0  0  0  0  0  0  0  0  0  0
  -17.0686   32.2956  -24.5151 C   0  0  0  0  0  0  0  0  0  0  0  0
  -16.5353   33.3350  -25.5352 C   0  0  0  0  0  0  0  0  0  0  0  0
  -16.5396   30.5855  -22.8969 C   0  0  0  0  0  0  0  0  0  0  0  0
  -18.4301   32.1498  -24.3219 C   0  0  0  0  0  0  0  0  0  0  0  0
  -18.8153   31.1987  -23.4129 C   0  0  0  0  0  0  0  0  0  0  0  0
  -16.6621   34.6594  -25.0172 C   0  0  0  0  0  0  0  0  0  0  0  0
  -17.0692   33.2382  -26.8731 C   0  0  0  0  0  0  0  0  0  0  0  0
  -17.8798   30.4137  -22.6959 C   0  0  0  0  0  0  0  0  0  0  0  0
  -15.6592   29.7704  -22.1913 O   0  0  0  0  0  0  0  0  0  0  0  0
  -17.5772   35.1294  -24.6108 O   0  0  0  0  0  0  0  0  0  0  0  0
  -16.3152   33.8009  -27.8590 N   0  0  0  0  0  0  0  0  0  0  0  0
  -17.6919   32.2140  -27.3178 O   0  0  0  0  0  0  0  0  0  0  0  0
  -15.5790   35.4525  -24.9719 O   0  0  0  0  0  0  0  0  0  0  0  0
  1  2  1  0
  2  3  2  0
  3  4  1  0
  2  5  1  0
  3  6  1  0
  6  7  2  0
  4  8  1  0
  4  9  1  0
  5 10  2  0
  7 10  1  0
  5 11  1  0
  8 12  1  0
  9 13  1  0
  9 14  2  0
  8 15  2  0
M  END
