
     RDKit          3D

 11 11  0  0  0  0  0  0  0  0999 V2000
  -15.7417   33.3081  -28.9290 O   0  0  0  0  0  0  0  0  0  0  0  0
  -16.5260   33.7411  -27.9574 C   0  0  0  0  0  0  0  0  0  0  0  0
  -16.3523   35.0055  -27.4599 C   0  0  0  0  0  0  0  0  0  0  0  0
  -17.7145   33.1524  -27.5628 C   0  0  0  0  0  0  0  0  0  0  0  0
  -18.3454   33.6919  -26.4655 C   0  0  0  0  0  0  0  0  0  0  0  0
  -16.9993   35.5660  -26.4201 C   0  0  0  0  0  0  0  0  0  0  0  0
  -18.0812   34.8638  -25.8932 C   0  0  0  0  0  0  0  0  0  0  0  0
  -18.9264   35.4549  -24.7029 C   0  0  0  0  0  0  0  0  0  0  0  0
  -18.7397   34.9389  -23.4914 C   0  0  0  0  0  0  0  0  0  0  0  0
  -19.6843   34.2363  -22.9372 O   0  0  0  0  0  0  0  0  0  0  0  0
  -17.5284   34.3037  -23.1853 O   0  0  0  0  0  0  0  0  0  0  0  0
  1  2  1  0
  2  3  1  0
  2  4  2  0
  4  5  1  0
  3  6  2  0
  5  7  2  0
  6  7  1  0
  7  8  1  0
  8  9  1  0
  9 10  1  0
  9 11  2  0
M  END
