
     RDKit          3D

 15 16  0  0  0  0  0  0  0  0999 V2000
  -14.6824   28.3033  -22.6998 O   0  0  0  0  0  0  0  0  0  0  0  0
  -15.6151   29.1821  -22.6283 C   0  0  0  0  0  0  0  0  0  0  0  0
  -16.8401   28.7630  -22.4029 N   0  0  0  0  0  0  0  0  0  0  0  0
  -15.3869   30.4902  -22.6749 N   0  0  0  0  0  0  0  0  0  0  0  0
  -14.8173   31.1066  -23.5799 C   0  0  0  0  0  0  0  0  0  0  0  0
  -15.8097   31.8598  -24.3532 C   0  0  0  0  0  0  0  0  0  0  0  0
  -17.1802   31.9069  -23.9640 C   0  0  0  0  0  0  0  0  0  0  0  0
  -17.7841   30.8666  -23.2895 C   0  0  0  0  0  0  0  0  0  0  0  0
  -18.0643   32.8919  -24.4926 C   0  0  0  0  0  0  0  0  0  0  0  0
  -17.9001   29.5675  -22.7699 C   0  0  0  0  0  0  0  0  0  0  0  0
  -15.3755   32.7973  -25.2329 N   0  0  0  0  0  0  0  0  0  0  0  0
  -16.2077   33.6709  -25.8831 C   0  0  0  0  0  0  0  0  0  0  0  0
  -15.7171   34.5874  -26.9195 N   0  0  0  0  0  0  0  0  0  0  0  0
  -17.4218   33.8226  -25.4352 C   0  0  0  0  0  0  0  0  0  0  0  0
  -16.2533   34.4165  -28.1719 C   0  0  0  0  0  0  0  0  0  0  0  0
  1  2  2  0
  2  3  1  0
  2  4  1  0
  4  5  1  0
  5  6  1  0
  6  7  1  0
  7  8  1  0
  7  9  2  0
  3 10  1  0
  8 10  1  0
  6 11  2  0
 11 12  1  0
 12 13  1  0
  9 14  1  0
 12 14  2  0
 13 15  1  0
M  END
