
     RDKit          3D

 15 14  0  0  0  0  0  0  0  0999 V2000
  -15.9333   33.3737  -28.3999 O   0  0  0  0  0  0  0  0  0  0  0  0
  -16.7726   33.1245  -27.5037 C   0  0  0  0  0  0  0  0  0  0  0  0
  -17.0463   34.2162  -26.5141 C   0  0  0  0  0  0  0  0  0  0  0  0
  -16.8573   33.8974  -25.2097 C   0  0  0  0  0  0  0  0  0  0  0  0
  -17.8676   33.2726  -24.5441 N   0  0  0  0  0  0  0  0  0  0  0  0
  -19.0285   33.8769  -24.2032 C   0  0  0  0  0  0  0  0  0  0  0  0
  -17.9063   31.8473  -24.5422 C   0  0  0  0  0  0  0  0  0  0  0  0
  -16.5188   35.1676  -24.4802 C   0  0  0  0  0  0  0  0  0  0  0  0
  -18.8604   34.7526  -23.1659 O   0  0  0  0  0  0  0  0  0  0  0  0
  -16.2712   35.4172  -26.8925 O   0  0  0  0  0  0  0  0  0  0  0  0
  -16.9986   31.2235  -23.6589 C   0  0  0  0  0  0  0  0  0  0  0  0
  -17.5396   30.3021  -22.7414 C   0  0  0  0  0  0  0  0  0  0  0  0
  -16.5519   29.5934  -21.9167 N   0  0  0  0  0  0  0  0  0  0  0  0
  -15.2894   29.8188  -22.1440 O   0  0  0  0  0  0  0  0  0  0  0  0
  -15.3039   35.3901  -24.3290 O   0  0  0  0  0  0  0  0  0  0  0  0
  1  2  1  0
  2  3  1  0
  3  4  1  0
  4  5  1  0
  5  6  1  0
  5  7  1  0
  4  8  1  0
  6  9  1  0
  3 10  1  0
  7 11  1  0
 11 12  2  3
 12 13  1  0
 13 14  1  0
  8 15  1  0
M  END
