
     RDKit          3D

 16 16  0  0  0  0  0  0  0  0999 V2000
  -14.3067   27.5053  -22.6448 O   0  0  0  0  0  0  0  0  0  0  0  0
  -15.3630   28.2563  -22.2067 C   0  0  0  0  0  0  0  0  0  0  0  0
  -15.3059   29.5971  -22.4412 N   0  0  0  0  0  0  0  0  0  0  0  0
  -16.4427   27.7282  -21.6955 N   0  0  0  0  0  0  0  0  0  0  0  0
  -16.4817   30.3583  -22.3350 C   0  0  0  0  0  0  0  0  0  0  0  0
  -16.2657   31.6349  -23.1445 C   0  0  0  0  0  0  0  0  0  0  0  0
  -15.4456   31.4888  -24.3347 O   0  0  0  0  0  0  0  0  0  0  0  0
  -17.4707   30.2285  -21.7763 O   0  0  0  0  0  0  0  0  0  0  0  0
  -17.6795   32.1417  -23.6448 C   0  0  0  0  0  0  0  0  0  0  0  0
  -17.6513   33.2866  -24.2954 N   0  0  0  0  0  0  0  0  0  0  0  0
  -17.8176   34.4558  -23.7206 C   0  0  0  0  0  0  0  0  0  0  0  0
  -17.6275   33.5087  -25.7883 C   0  0  0  0  0  0  0  0  0  0  0  0
  -17.0869   32.6306  -26.7169 C   0  0  0  0  0  0  0  0  0  0  0  0
  -17.6518   35.6259  -24.3880 N   0  0  0  0  0  0  0  0  0  0  0  0
  -17.4561   35.0363  -25.7862 C   0  0  0  0  0  0  0  0  0  0  0  0
  -17.8685   35.7150  -26.8594 O   0  0  0  0  0  0  0  0  0  0  0  0
  1  2  2  0
  2  3  1  0
  2  4  1  0
  3  5  1  0
  5  6  1  0
  6  7  1  0
  5  8  2  0
  6  9  1  0
  9 10  1  0
 10 11  1  0
 10 12  1  0
 12 13  1  0
 11 14  2  0
 12 15  1  0
 14 15  1  0
 15 16  2  0
M  END
