
     RDKit          3D

  6  5  0  0  0  0  0  0  0  0999 V2000
  -14.1161   27.9960  -22.5414 O   0  0  0  0  0  0  0  0  0  0  0  0
  -15.3836   28.6758  -22.3888 C   0  0  0  0  0  0  0  0  0  0  0  0
  -16.4331   28.0626  -22.2894 O   0  0  0  0  0  0  0  0  0  0  0  0
  -15.3569   30.1227  -22.1443 C   0  0  0  0  0  0  0  0  0  0  0  0
  -14.7059   30.7813  -23.0958 O   0  0  0  0  0  0  0  0  0  0  0  0
  -16.2122   30.5490  -21.3614 O   0  0  0  0  0  0  0  0  0  0  0  0
  1  2  2  0
  2  3  1  0
  2  4  1  0
  4  5  1  0
  4  6  2  0
M  END
