
     RDKit          3D

 18 17  0  0  0  0  0  0  0  0999 V2000
  -14.6536   27.6967  -22.6129 O   0  0  0  0  0  0  0  0  0  0  0  0
  -15.6077   28.3951  -21.9454 C   0  0  0  0  0  0  0  0  0  0  0  0
  -16.5391   27.8452  -21.4375 O   0  0  0  0  0  0  0  0  0  0  0  0
  -15.6164   29.8516  -22.0026 C   0  0  0  0  0  0  0  0  0  0  0  0
  -16.8538   30.4581  -22.2933 C   0  0  0  0  0  0  0  0  0  0  0  0
  -16.8334   31.5297  -23.1732 N   0  0  0  0  0  0  0  0  0  0  0  0
  -18.0751   32.1501  -23.5743 C   0  0  0  0  0  0  0  0  0  0  0  0
  -17.8813   33.2623  -24.4072 C   0  0  0  0  0  0  0  0  0  0  0  0
  -18.9014   31.0195  -24.1580 O   0  0  0  0  0  0  0  0  0  0  0  0
  -17.6403   34.4008  -23.7698 O   0  0  0  0  0  0  0  0  0  0  0  0
  -16.8262   35.5558  -24.1555 P   0  0  0  0  0  0  0  0  0  0  0  0
  -16.9327   36.5551  -23.1684 O   0  0  0  0  0  0  0  0  0  0  0  0
  -17.0089   36.2992  -21.5665 P   0  0  0  0  0  0  0  0  0  0  0  0
  -18.4282   36.8536  -21.0962 O   0  0  0  0  0  0  0  0  0  0  0  0
  -15.4780   35.1502  -24.6685 O   0  0  0  0  0  0  0  0  0  0  0  0
  -17.6427   36.2857  -25.1586 O   0  0  0  0  0  0  0  0  0  0  0  0
  -16.7740   34.9869  -21.3028 O   0  0  0  0  0  0  0  0  0  0  0  0
  -16.1682   37.2254  -20.7208 O   0  0  0  0  0  0  0  0  0  0  0  0
  1  2  2  0
  2  3  1  0
  2  4  1  0
  4  5  1  0
  5  6  1  0
  6  7  1  0
  7  8  1  0
  7  9  1  0
  8 10  1  0
 10 11  1  0
 11 12  1  0
 12 13  1  0
 13 14  1  0
 11 15  1  0
 11 16  2  0
 13 17  1  0
 13 18  2  0
M  END
