
     RDKit          3D

 10  9  0  0  0  0  0  0  0  0999 V2000
  -14.3310   27.3652  -22.5403 O   0  0  0  0  0  0  0  0  0  0  0  0
  -15.3830   28.1564  -22.3552 C   0  0  0  0  0  0  0  0  0  0  0  0
  -16.5051   27.6623  -22.1350 O   0  0  0  0  0  0  0  0  0  0  0  0
  -15.2477   29.6180  -21.9960 C   0  0  0  0  0  0  0  0  0  0  0  0
  -16.4497   30.3646  -22.1546 N   0  0  0  0  0  0  0  0  0  0  0  0
  -16.9912   30.6259  -23.3902 C   0  0  0  0  0  0  0  0  0  0  0  0
  -18.3491   31.1015  -23.4416 C   0  0  0  0  0  0  0  0  0  0  0  0
  -18.6882   32.0748  -22.5030 C   0  0  0  0  0  0  0  0  0  0  0  0
  -18.2585   33.3073  -22.4353 O   0  0  0  0  0  0  0  0  0  0  0  0
  -19.5286   31.6731  -21.4279 O   0  0  0  0  0  0  0  0  0  0  0  0
  1  2  2  0
  2  3  1  0
  2  4  1  0
  4  5  1  0
  5  6  1  0
  6  7  1  0
  7  8  1  0
  8  9  2  0
  8 10  1  0
M  END
