
     RDKit          3D

 18 18  0  0  0  0  0  0  0  0999 V2000
  -16.5971   36.4982  -19.6584 O   0  0  0  0  0  0  0  0  0  0  0  0
  -17.3089   36.7198  -20.7402 P   0  0  0  0  0  0  0  0  0  0  0  0
  -16.7376   37.7947  -21.4685 O   0  0  0  0  0  0  0  0  0  0  0  0
  -17.2747   35.6236  -21.7812 O   0  0  0  0  0  0  0  0  0  0  0  0
  -18.8295   36.8803  -20.4457 O   0  0  0  0  0  0  0  0  0  0  0  0
  -17.2864   35.7145  -23.2731 P   0  0  0  0  0  0  0  0  0  0  0  0
  -18.2748   36.5767  -23.6950 O   0  0  0  0  0  0  0  0  0  0  0  0
  -17.5540   34.2624  -23.7254 O   0  0  0  0  0  0  0  0  0  0  0  0
  -15.9921   36.1696  -23.7940 O   0  0  0  0  0  0  0  0  0  0  0  0
  -17.0669   33.6093  -24.8360 C   0  0  0  0  0  0  0  0  0  0  0  0
  -17.6728   32.4123  -25.1248 C   0  0  0  0  0  0  0  0  0  0  0  0
  -17.2754   31.3962  -24.2129 O   0  0  0  0  0  0  0  0  0  0  0  0
  -19.1649   32.4924  -25.0396 C   0  0  0  0  0  0  0  0  0  0  0  0
  -19.8577   32.3969  -26.2794 O   0  0  0  0  0  0  0  0  0  0  0  0
  -19.4438   31.2505  -24.1612 C   0  0  0  0  0  0  0  0  0  0  0  0
  -18.1561   31.1709  -23.2804 C   0  0  0  0  0  0  0  0  0  0  0  0
  -17.9296   30.8025  -22.0839 O   0  0  0  0  0  0  0  0  0  0  0  0
  -19.6805   30.0796  -24.7827 O   0  0  0  0  0  0  0  0  0  0  0  0
  1  2  1  0
  2  3  1  0
  2  4  1  0
  2  5  2  0
  4  6  1  0
  6  7  1  0
  6  8  1  0
  6  9  2  0
  8 10  1  0
 10 11  1  0
 11 12  1  0
 11 13  1  0
 13 14  1  0
 13 15  1  0
 12 16  1  0
 15 16  1  0
 16 17  2  0
 15 18  1  0
M  END
