
     RDKit          3D

 18 18  0  0  0  0  0  0  0  0999 V2000
  -16.8103   36.3040  -19.7981 O   0  0  0  0  0  0  0  0  0  0  0  0
  -17.1344   36.7803  -20.9423 P   0  0  0  0  0  0  0  0  0  0  0  0
  -17.2665   35.6686  -21.9477 O   0  0  0  0  0  0  0  0  0  0  0  0
  -18.6414   37.3315  -20.8871 O   0  0  0  0  0  0  0  0  0  0  0  0
  -16.2304   37.7671  -21.4442 O   0  0  0  0  0  0  0  0  0  0  0  0
  -18.3708   34.7556  -22.3012 C   0  0  0  0  0  0  0  0  0  0  0  0
  -18.1138   33.8152  -23.2571 C   0  0  0  0  0  0  0  0  0  0  0  0
  -17.0172   34.1181  -24.0615 O   0  0  0  0  0  0  0  0  0  0  0  0
  -18.3405   32.5493  -22.7284 C   0  0  0  0  0  0  0  0  0  0  0  0
  -16.5364   33.1280  -25.0046 C   0  0  0  0  0  0  0  0  0  0  0  0
  -18.9780   32.6296  -21.5631 O   0  0  0  0  0  0  0  0  0  0  0  0
  -17.9538   31.3855  -23.1495 O   0  0  0  0  0  0  0  0  0  0  0  0
  -15.0647   33.3861  -24.9934 C   0  0  0  0  0  0  0  0  0  0  0  0
  -17.1186   33.5226  -26.2590 C   0  0  0  0  0  0  0  0  0  0  0  0
  -16.1003   34.0646  -27.1375 C   0  0  0  0  0  0  0  0  0  0  0  0
  -14.9298   34.4118  -26.0974 C   0  0  0  0  0  0  0  0  0  0  0  0
  -15.7508   33.0825  -28.0923 O   0  0  0  0  0  0  0  0  0  0  0  0
  -14.2351   35.3896  -26.1970 O   0  0  0  0  0  0  0  0  0  0  0  0
  1  2  1  0
  2  3  1  0
  2  4  2  0
  2  5  1  0
  3  6  1  0
  6  7  1  0
  7  8  1  0
  7  9  1  0
  8 10  1  0
  9 11  1  0
  9 12  2  0
 10 13  1  0
 10 14  1  0
 14 15  1  0
 13 16  1  0
 15 16  1  0
 15 17  1  0
 16 18  2  0
M  END
