
     RDKit          3D

 18 18  0  0  0  0  0  0  0  0999 V2000
  -20.0908   33.2230  -20.2842 O   0  0  0  0  0  0  0  0  0  0  0  0
  -19.3692   34.0030  -20.9429 P   0  0  0  0  0  0  0  0  0  0  0  0
  -19.8157   35.1343  -21.6931 O   0  0  0  0  0  0  0  0  0  0  0  0
  -18.5582   33.1642  -22.1225 O   0  0  0  0  0  0  0  0  0  0  0  0
  -18.2132   34.4923  -20.0611 O   0  0  0  0  0  0  0  0  0  0  0  0
  -18.2891   31.6899  -22.0471 C   0  0  0  0  0  0  0  0  0  0  0  0
  -17.8517   31.1681  -23.2694 C   0  0  0  0  0  0  0  0  0  0  0  0
  -17.4311   32.0774  -24.1863 N   0  0  0  0  0  0  0  0  0  0  0  0
  -17.4454   29.8808  -23.0776 O   0  0  0  0  0  0  0  0  0  0  0  0
  -17.7992   33.3742  -24.4168 C   0  0  0  0  0  0  0  0  0  0  0  0
  -16.4537   31.5531  -25.2672 C   0  0  0  0  0  0  0  0  0  0  0  0
  -17.2464   34.0335  -25.6085 C   0  0  0  0  0  0  0  0  0  0  0  0
  -16.5080   35.1433  -25.2946 C   0  0  0  0  0  0  0  0  0  0  0  0
  -16.2498   32.9426  -26.1743 C   0  0  0  0  0  0  0  0  0  0  0  0
  -16.3390   32.6742  -27.5348 C   0  0  0  0  0  0  0  0  0  0  0  0
  -15.4295   35.1676  -24.8657 O   0  0  0  0  0  0  0  0  0  0  0  0
  -17.2381   36.2936  -25.1832 O   0  0  0  0  0  0  0  0  0  0  0  0
  -15.9515   33.7808  -28.3875 C   0  0  0  0  0  0  0  0  0  0  0  0
  1  2  1  0
  2  3  1  0
  2  4  1  0
  2  5  2  0
  4  6  1  0
  6  7  1  0
  7  8  1  0
  7  9  2  0
  8 10  1  0
  8 11  1  0
 10 12  1  0
 12 13  1  0
 11 14  1  0
 12 14  1  0
 14 15  1  0
 13 16  2  0
 13 17  1  0
 15 18  1  0
M  END
