
     RDKit          3D

 18 17  0  0  0  0  0  0  0  0999 V2000
  -14.0730   27.7746  -22.7153 O   0  0  0  0  0  0  0  0  0  0  0  0
  -15.3941   28.2155  -22.3825 C   0  0  0  0  0  0  0  0  0  0  0  0
  -16.2571   27.4298  -22.1648 O   0  0  0  0  0  0  0  0  0  0  0  0
  -15.5706   29.6695  -21.9797 C   0  0  0  0  0  0  0  0  0  0  0  0
  -15.8062   30.4733  -23.2398 C   0  0  0  0  0  0  0  0  0  0  0  0
  -16.9638   31.3634  -23.1183 C   0  0  0  0  0  0  0  0  0  0  0  0
  -17.0773   32.4206  -24.0064 C   0  0  0  0  0  0  0  0  0  0  0  0
  -18.2388   30.5391  -23.1080 O   0  0  0  0  0  0  0  0  0  0  0  0
  -16.9836   32.1107  -25.2898 O   0  0  0  0  0  0  0  0  0  0  0  0
  -16.8530   33.6430  -23.6358 N   0  0  0  0  0  0  0  0  0  0  0  0
  -16.7489   34.7806  -24.6053 C   0  0  0  0  0  0  0  0  0  0  0  0
  -17.8825   35.1660  -25.2338 C   0  0  0  0  0  0  0  0  0  0  0  0
  -15.5772   35.4747  -24.7799 O   0  0  0  0  0  0  0  0  0  0  0  0
  -18.7111   35.9734  -24.6461 C   0  0  0  0  0  0  0  0  0  0  0  0
  -19.9717   35.6120  -24.2441 O   0  0  0  0  0  0  0  0  0  0  0  0
  -18.0378   34.9492  -26.6893 C   0  0  0  0  0  0  0  0  0  0  0  0
  -17.7242   33.6249  -27.3379 C   0  0  0  0  0  0  0  0  0  0  0  0
  -18.2095   37.0628  -23.9652 O   0  0  0  0  0  0  0  0  0  0  0  0
  1  2  2  0
  2  3  1  0
  2  4  1  0
  4  5  1  0
  5  6  1  0
  6  7  1  0
  6  8  1  0
  7  9  2  0
  7 10  1  0
 10 11  1  0
 11 12  1  0
 11 13  2  0
 12 14  1  0
 14 15  2  0
 12 16  2  3
 16 17  1  0
 14 18  1  0
M  END
