
     RDKit          3D

 19 18  0  0  0  0  0  0  0  0999 V2000
  -16.5971   36.4982  -19.6584 O   0  0  0  0  0  0  0  0  0  0  0  0
  -17.8941   36.5698  -20.2032 P   0  0  0  0  0  0  0  0  0  0  0  0
  -17.9946   35.8633  -21.4526 O   0  0  0  0  0  0  0  0  0  0  0  0
  -18.8626   35.7555  -22.7075 P   0  0  0  0  0  0  0  0  0  0  0  0
  -18.9445   35.9465  -19.2354 O   0  0  0  0  0  0  0  0  0  0  0  0
  -18.3692   34.7814  -23.5577 O   0  0  0  0  0  0  0  0  0  0  0  0
  -18.6205   33.4958  -23.8809 C   0  0  0  0  0  0  0  0  0  0  0  0
  -18.0567   38.0533  -20.4478 O   0  0  0  0  0  0  0  0  0  0  0  0
  -20.2930   35.3212  -22.2117 O   0  0  0  0  0  0  0  0  0  0  0  0
  -17.5967   32.7201  -24.4813 C   0  0  0  0  0  0  0  0  0  0  0  0
  -16.6010   33.4034  -25.0564 O   0  0  0  0  0  0  0  0  0  0  0  0
  -18.8194   37.0217  -23.2966 O   0  0  0  0  0  0  0  0  0  0  0  0
  -16.7002   34.2059  -26.2640 C   0  0  0  0  0  0  0  0  0  0  0  0
  -16.0513   35.4113  -26.2343 C   0  0  0  0  0  0  0  0  0  0  0  0
  -16.5414   33.4238  -27.3813 C   0  0  0  0  0  0  0  0  0  0  0  0
  -17.0659   31.6827  -23.5329 C   0  0  0  0  0  0  0  0  0  0  0  0
  -17.9167   31.2361  -22.5942 O   0  0  0  0  0  0  0  0  0  0  0  0
  -14.9455   35.3875  -25.5693 O   0  0  0  0  0  0  0  0  0  0  0  0
  -16.3747   34.2038  -28.4875 O   0  0  0  0  0  0  0  0  0  0  0  0
  1  2  1  0
  2  3  1  0
  3  4  1  0
  2  5  2  0
  4  6  1  0
  6  7  1  0
  2  8  1  0
  4  9  1  0
  7 10  1  0
 10 11  1  0
  4 12  2  0
 11 13  1  0
 13 14  1  0
 13 15  1  0
 10 16  1  0
 16 17  1  0
 14 18  1  0
 15 19  1  0
M  END
