
     RDKit          3D

 19 19  0  0  0  0  0  0  0  0999 V2000
  -20.0908   33.2230  -20.2842 O   0  0  0  0  0  0  0  0  0  0  0  0
  -19.3692   34.0030  -20.9429 P   0  0  0  0  0  0  0  0  0  0  0  0
  -18.3531   34.6240  -19.9880 O   0  0  0  0  0  0  0  0  0  0  0  0
  -18.4781   33.2455  -22.0031 O   0  0  0  0  0  0  0  0  0  0  0  0
  -18.4002   31.6648  -22.0831 C   0  0  0  0  0  0  0  0  0  0  0  0
  -20.1421   35.0425  -21.7852 O   0  0  0  0  0  0  0  0  0  0  0  0
  -18.0837   36.3095  -19.8473 P   0  0  0  0  0  0  0  0  0  0  0  0
  -17.9253   31.1886  -23.2339 C   0  0  0  0  0  0  0  0  0  0  0  0
  -16.5855   36.4925  -20.2388 O   0  0  0  0  0  0  0  0  0  0  0  0
  -16.7462   30.5742  -23.0159 C   0  0  0  0  0  0  0  0  0  0  0  0
  -16.4829   29.4316  -22.3452 N   0  0  0  0  0  0  0  0  0  0  0  0
  -15.2555   28.8174  -22.2143 C   0  0  0  0  0  0  0  0  0  0  0  0
  -15.1751   27.5847  -21.6906 N   0  0  0  0  0  0  0  0  0  0  0  0
  -15.6845   31.0776  -23.7484 N   0  0  0  0  0  0  0  0  0  0  0  0
  -14.2950   29.3610  -22.8571 N   0  0  0  0  0  0  0  0  0  0  0  0
  -14.3995   30.5056  -23.5497 C   0  0  0  0  0  0  0  0  0  0  0  0
  -13.3933   31.0485  -24.0977 N   0  0  0  0  0  0  0  0  0  0  0  0
  -18.9229   36.8291  -21.1078 O   0  0  0  0  0  0  0  0  0  0  0  0
  -18.5231   36.7780  -18.6282 O   0  0  0  0  0  0  0  0  0  0  0  0
  1  2  1  0
  2  3  1  0
  2  4  1  0
  4  5  1  0
  2  6  2  0
  3  7  1  0
  5  8  1  0
  7  9  2  0
  8 10  1  0
 10 11  1  0
 11 12  1  0
 12 13  1  0
 10 14  2  0
 12 15  2  0
 14 16  1  0
 15 16  1  0
 16 17  2  0
  7 18  1  0
  7 19  1  0
M  END
