
     RDKit          3D

 19 20  0  0  0  0  0  0  0  0999 V2000
  -16.1671   28.3901  -22.5630 N   0  0  0  0  0  0  0  0  0  0  0  0
  -15.0332   27.9865  -22.5518 C   0  0  0  0  0  0  0  0  0  0  0  0
  -16.4369   29.5352  -22.4017 C   0  0  0  0  0  0  0  0  0  0  0  0
  -14.4010   26.9811  -21.9934 O   0  0  0  0  0  0  0  0  0  0  0  0
  -15.4338   30.4462  -22.6694 N   0  0  0  0  0  0  0  0  0  0  0  0
  -17.7841   30.0714  -22.2435 N   0  0  0  0  0  0  0  0  0  0  0  0
  -18.1969   31.3561  -22.2333 C   0  0  0  0  0  0  0  0  0  0  0  0
  -13.9969   29.1024  -22.6602 N   0  0  0  0  0  0  0  0  0  0  0  0
  -14.2886   30.2442  -22.7812 C   0  0  0  0  0  0  0  0  0  0  0  0
  -17.6199   32.2841  -22.9239 O   0  0  0  0  0  0  0  0  0  0  0  0
  -18.0900   33.1837  -23.7692 C   0  0  0  0  0  0  0  0  0  0  0  0
  -17.2010   33.4474  -24.8342 C   0  0  0  0  0  0  0  0  0  0  0  0
  -17.4773   34.4037  -25.7194 O   0  0  0  0  0  0  0  0  0  0  0  0
  -17.3770   34.1930  -27.0467 C   0  0  0  0  0  0  0  0  0  0  0  0
  -19.3798   31.8136  -21.6345 O   0  0  0  0  0  0  0  0  0  0  0  0
  -17.4824   32.7681  -27.4046 C   0  0  0  0  0  0  0  0  0  0  0  0
  -17.1537   32.1884  -26.0022 C   0  0  0  0  0  0  0  0  0  0  0  0
  -16.1149   34.8688  -27.6115 C   0  0  0  0  0  0  0  0  0  0  0  0
  -15.8579   35.9695  -26.9571 F   0  0  0  0  0  0  0  0  0  0  0  0
  1  2  1  0
  1  3  1  0
  2  4  2  0
  3  5  2  0
  3  6  1  0
  6  7  1  0
  2  8  1  0
  5  9  1  0
  8  9  2  0
  7 10  1  0
 10 11  1  0
 11 12  1  0
 12 13  1  0
 13 14  1  0
  7 15  2  0
 14 16  1  0
 12 17  1  0
 16 17  1  0
 14 18  1  0
 18 19  1  0
M  END
