
     RDKit          3D

 19 19  0  0  0  0  0  0  0  0999 V2000
  -16.5971   36.4982  -19.6584 O   0  0  0  0  0  0  0  0  0  0  0  0
  -17.3089   36.7198  -20.7402 P   0  0  0  0  0  0  0  0  0  0  0  0
  -16.7376   37.7947  -21.4685 O   0  0  0  0  0  0  0  0  0  0  0  0
  -17.2747   35.6236  -21.7812 O   0  0  0  0  0  0  0  0  0  0  0  0
  -18.8295   36.8803  -20.4457 O   0  0  0  0  0  0  0  0  0  0  0  0
  -17.2864   35.7145  -23.2731 P   0  0  0  0  0  0  0  0  0  0  0  0
  -18.2748   36.5767  -23.6950 O   0  0  0  0  0  0  0  0  0  0  0  0
  -17.5540   34.2624  -23.7254 O   0  0  0  0  0  0  0  0  0  0  0  0
  -15.9921   36.1696  -23.7940 O   0  0  0  0  0  0  0  0  0  0  0  0
  -17.0669   33.6093  -24.8360 C   0  0  0  0  0  0  0  0  0  0  0  0
  -17.9160   33.7662  -26.0251 C   0  0  0  0  0  0  0  0  0  0  0  0
  -16.6751   32.2235  -24.5600 C   0  0  0  0  0  0  0  0  0  0  0  0
  -17.3029   33.3520  -27.2455 C   0  0  0  0  0  0  0  0  0  0  0  0
  -19.2350   33.3811  -25.9814 O   0  0  0  0  0  0  0  0  0  0  0  0
  -16.6041   34.3436  -27.9659 C   0  0  0  0  0  0  0  0  0  0  0  0
  -16.1603   32.4383  -26.9808 O   0  0  0  0  0  0  0  0  0  0  0  0
  -15.4412   34.1625  -28.4024 O   0  0  0  0  0  0  0  0  0  0  0  0
  -16.5628   31.5655  -25.8145 C   0  0  0  0  0  0  0  0  0  0  0  0
  -15.5629   32.1132  -23.7678 O   0  0  0  0  0  0  0  0  0  0  0  0
  1  2  1  0
  2  3  1  0
  2  4  1  0
  2  5  2  0
  4  6  1  0
  6  7  1  0
  6  8  1  0
  6  9  2  0
  8 10  1  0
 10 11  1  0
 10 12  1  0
 11 13  1  0
 11 14  1  0
 13 15  1  0
 13 16  1  0
 15 17  1  0
 12 18  1  0
 16 18  1  0
 12 19  1  0
M  END
