
     RDKit          3D

 19 19  0  0  0  0  0  0  0  0999 V2000
  -20.2906   31.1794  -21.0107 O   0  0  0  0  0  0  0  0  0  0  0  0
  -19.7479   32.4848  -20.7297 P   0  0  0  0  0  0  0  0  0  0  0  0
  -19.4560   32.8041  -19.4502 O   0  0  0  0  0  0  0  0  0  0  0  0
  -18.5358   32.7350  -21.6745 O   0  0  0  0  0  0  0  0  0  0  0  0
  -20.7765   33.5073  -21.3463 O   0  0  0  0  0  0  0  0  0  0  0  0
  -18.0056   31.6111  -22.5566 C   0  0  0  0  0  0  0  0  0  0  0  0
  -18.5086   31.6485  -23.6831 C   0  0  0  0  0  0  0  0  0  0  0  0
  -18.3940   32.7603  -24.4636 N   0  0  0  0  0  0  0  0  0  0  0  0
  -17.1579   33.2774  -24.7594 C   0  0  0  0  0  0  0  0  0  0  0  0
  -19.4403   33.3336  -25.3158 C   0  0  0  0  0  0  0  0  0  0  0  0
  -19.2149   30.6794  -24.1261 O   0  0  0  0  0  0  0  0  0  0  0  0
  -17.1678   34.6203  -25.3081 C   0  0  0  0  0  0  0  0  0  0  0  0
  -16.1354   32.5365  -25.4644 C   0  0  0  0  0  0  0  0  0  0  0  0
  -15.1162   32.1295  -24.7119 O   0  0  0  0  0  0  0  0  0  0  0  0
  -15.9356   33.1371  -26.6408 C   0  0  0  0  0  0  0  0  0  0  0  0
  -16.3289   32.5709  -27.9009 C   0  0  0  0  0  0  0  0  0  0  0  0
  -16.5470   34.4878  -26.5117 N   0  0  0  0  0  0  0  0  0  0  0  0
  -15.7849   33.3540  -29.0101 C   0  0  0  0  0  0  0  0  0  0  0  0
  -15.0923   32.7637  -29.9762 C   0  0  0  0  0  0  0  0  0  0  0  0
  1  2  1  0
  2  3  1  0
  2  4  1  0
  2  5  2  0
  4  6  1  0
  6  7  1  0
  7  8  1  0
  8  9  1  0
  8 10  1  0
  7 11  2  0
  9 12  1  0
  9 13  1  0
 13 14  1  0
 13 15  1  0
 15 16  1  0
 12 17  1  0
 15 17  1  0
 16 18  1  0
 18 19  1  0
M  END
