
     RDKit          3D

 20 19  0  0  0  0  0  0  0  0999 V2000
  -16.4678   36.3621  -19.6339 O   0  0  0  0  0  0  0  0  0  0  0  0
  -17.3400   36.7295  -20.6066 P   0  0  0  0  0  0  0  0  0  0  0  0
  -17.2422   35.7141  -21.7330 O   0  0  0  0  0  0  0  0  0  0  0  0
  -17.8554   35.7659  -23.1051 P   0  0  0  0  0  0  0  0  0  0  0  0
  -18.0166   34.4732  -23.6229 O   0  0  0  0  0  0  0  0  0  0  0  0
  -17.1237   38.0923  -21.1455 O   0  0  0  0  0  0  0  0  0  0  0  0
  -18.8523   36.5047  -20.1118 O   0  0  0  0  0  0  0  0  0  0  0  0
  -17.0182   33.6833  -24.3750 C   0  0  0  0  0  0  0  0  0  0  0  0
  -17.3233   32.3463  -24.4914 C   0  0  0  0  0  0  0  0  0  0  0  0
  -19.1429   36.3763  -23.2216 O   0  0  0  0  0  0  0  0  0  0  0  0
  -16.4841   31.4872  -23.9096 O   0  0  0  0  0  0  0  0  0  0  0  0
  -16.4581   34.4796  -25.4961 C   0  0  0  0  0  0  0  0  0  0  0  0
  -18.6785   31.9252  -23.8324 C   0  0  0  0  0  0  0  0  0  0  0  0
  -16.6837   34.0418  -26.7694 C   0  0  0  0  0  0  0  0  0  0  0  0
  -16.9778   36.5819  -24.0145 O   0  0  0  0  0  0  0  0  0  0  0  0
  -18.7392   32.1198  -22.4971 C   0  0  0  0  0  0  0  0  0  0  0  0
  -19.9782   31.8413  -21.8419 O   0  0  0  0  0  0  0  0  0  0  0  0
  -15.1247   34.7978  -25.3049 O   0  0  0  0  0  0  0  0  0  0  0  0
  -15.7196   34.2652  -27.6790 O   0  0  0  0  0  0  0  0  0  0  0  0
  -18.8967   30.5173  -24.0074 O   0  0  0  0  0  0  0  0  0  0  0  0
  1  2  1  0
  2  3  1  0
  3  4  1  0
  4  5  1  0
  2  6  2  0
  2  7  1  0
  5  8  1  0
  8  9  1  0
  4 10  1  0
  9 11  1  0
  8 12  1  0
  9 13  1  0
 12 14  1  0
  4 15  2  0
 13 16  1  0
 16 17  1  0
 12 18  1  0
 14 19  1  0
 13 20  1  0
M  END
