
     RDKit          3D

 20 20  0  0  0  0  0  0  0  0999 V2000
  -16.8838   36.5884  -19.6555 O   0  0  0  0  0  0  0  0  0  0  0  0
  -18.0728   36.5381  -20.2681 P   0  0  0  0  0  0  0  0  0  0  0  0
  -18.0415   35.6397  -21.4588 O   0  0  0  0  0  0  0  0  0  0  0  0
  -18.9747   34.5589  -21.8723 P   0  0  0  0  0  0  0  0  0  0  0  0
  -19.7374   34.0167  -20.8063 O   0  0  0  0  0  0  0  0  0  0  0  0
  -18.1634   33.3857  -22.5880 O   0  0  0  0  0  0  0  0  0  0  0  0
  -18.3664   37.9721  -20.7403 O   0  0  0  0  0  0  0  0  0  0  0  0
  -19.0826   36.0150  -19.2667 O   0  0  0  0  0  0  0  0  0  0  0  0
  -20.0268   35.1375  -22.7753 O   0  0  0  0  0  0  0  0  0  0  0  0
  -18.4105   31.9532  -22.5162 P   0  0  0  0  0  0  0  0  0  0  0  0
  -17.4191   31.3435  -23.3657 O   0  0  0  0  0  0  0  0  0  0  0  0
  -16.4326   30.5721  -22.9870 C   0  0  0  0  0  0  0  0  0  0  0  0
  -18.1861   31.4959  -21.0854 O   0  0  0  0  0  0  0  0  0  0  0  0
  -19.8234   31.7196  -23.1405 O   0  0  0  0  0  0  0  0  0  0  0  0
  -15.1844   31.0281  -23.3739 C   0  0  0  0  0  0  0  0  0  0  0  0
  -16.5403   29.3348  -22.3245 C   0  0  0  0  0  0  0  0  0  0  0  0
  -15.4189   28.5389  -22.0918 C   0  0  0  0  0  0  0  0  0  0  0  0
  -14.1201   30.1747  -22.9528 C   0  0  0  0  0  0  0  0  0  0  0  0
  -15.5906   27.3029  -21.4734 O   0  0  0  0  0  0  0  0  0  0  0  0
  -14.1817   28.9515  -22.5178 C   0  0  0  0  0  0  0  0  0  0  0  0
  1  2  1  0
  2  3  1  0
  3  4  1  0
  4  5  1  0
  4  6  1  0
  2  7  2  0
  2  8  1  0
  4  9  2  0
  6 10  1  0
 10 11  1  0
 11 12  1  0
 10 13  1  0
 10 14  2  0
 12 15  2  0
 12 16  1  0
 16 17  2  0
 15 18  1  0
 17 19  1  0
 17 20  1  0
 18 20  2  0
M  END
