
     RDKit          3D

 20 20  0  0  0  0  0  0  0  0999 V2000
  -16.7588   37.4082  -20.9302 O   0  0  0  0  0  0  0  0  0  0  0  0
  -17.3037   36.3562  -20.2675 P   0  0  0  0  0  0  0  0  0  0  0  0
  -18.4539   36.7697  -19.4139 O   0  0  0  0  0  0  0  0  0  0  0  0
  -17.8317   35.1875  -21.2290 O   0  0  0  0  0  0  0  0  0  0  0  0
  -19.2816   35.0969  -21.7310 C   0  0  0  0  0  0  0  0  0  0  0  0
  -19.5190   33.8163  -22.3858 C   0  0  0  0  0  0  0  0  0  0  0  0
  -16.3230   35.7039  -19.4050 O   0  0  0  0  0  0  0  0  0  0  0  0
  -18.8240   33.6411  -23.6117 O   0  0  0  0  0  0  0  0  0  0  0  0
  -19.1668   32.5430  -21.4920 C   0  0  0  0  0  0  0  0  0  0  0  0
  -18.7892   31.5291  -22.1031 C   0  0  0  0  0  0  0  0  0  0  0  0
  -18.1637   31.4329  -23.3274 C   0  0  0  0  0  0  0  0  0  0  0  0
  -18.0911   32.7575  -24.0304 C   0  0  0  0  0  0  0  0  0  0  0  0
  -19.6700   32.5907  -20.1580 C   0  0  0  0  0  0  0  0  0  0  0  0
  -17.2538   32.9010  -25.1732 C   0  0  0  0  0  0  0  0  0  0  0  0
  -15.9342   33.0753  -24.9967 O   0  0  0  0  0  0  0  0  0  0  0  0
  -17.6488   30.4540  -23.8167 O   0  0  0  0  0  0  0  0  0  0  0  0
  -17.7463   33.3916  -26.4002 C   0  0  0  0  0  0  0  0  0  0  0  0
  -16.7721   33.7650  -27.3389 C   0  0  0  0  0  0  0  0  0  0  0  0
  -18.5342   34.6793  -26.0937 O   0  0  0  0  0  0  0  0  0  0  0  0
  -16.2483   32.7586  -27.9516 O   0  0  0  0  0  0  0  0  0  0  0  0
  1  2  1  0
  2  3  1  0
  2  4  1  0
  4  5  1  0
  5  6  1  0
  2  7  2  0
  6  8  1  0
  6  9  1  0
  9 10  2  0
 10 11  1  0
  8 12  1  0
 11 12  1  0
  9 13  1  0
 12 14  1  0
 14 15  1  0
 11 16  2  0
 14 17  1  0
 17 18  1  0
 17 19  1  0
 18 20  1  0
M  END
