
     RDKit          3D

 20 19  0  0  0  0  0  0  0  0999 V2000
  -20.0791   31.4795  -21.0099 O   0  0  0  0  0  0  0  0  0  0  0  0
  -19.1728   32.3220  -21.3461 P   0  0  0  0  0  0  0  0  0  0  0  0
  -19.7351   33.4387  -22.0192 O   0  0  0  0  0  0  0  0  0  0  0  0
  -18.2676   31.5096  -22.4702 O   0  0  0  0  0  0  0  0  0  0  0  0
  -18.2880   32.6535  -20.0761 O   0  0  0  0  0  0  0  0  0  0  0  0
  -18.1781   31.6550  -23.8053 C   0  0  0  0  0  0  0  0  0  0  0  0
  -16.7891   31.8140  -24.3371 C   0  0  0  0  0  0  0  0  0  0  0  0
  -16.6206   33.0565  -24.8536 C   0  0  0  0  0  0  0  0  0  0  0  0
  -15.8930   31.5724  -23.1063 O   0  0  0  0  0  0  0  0  0  0  0  0
  -15.5521   30.1888  -22.6722 C   0  0  0  0  0  0  0  0  0  0  0  0
  -16.2174   29.2171  -22.5715 C   0  0  0  0  0  0  0  0  0  0  0  0
  -17.3275   33.2599  -26.0785 C   0  0  0  0  0  0  0  0  0  0  0  0
  -15.7502   33.8142  -24.5388 O   0  0  0  0  0  0  0  0  0  0  0  0
  -15.8348   28.0121  -22.0909 C   0  0  0  0  0  0  0  0  0  0  0  0
  -16.8828   34.4150  -26.8079 C   0  0  0  0  0  0  0  0  0  0  0  0
  -16.2866   27.2847  -21.1664 O   0  0  0  0  0  0  0  0  0  0  0  0
  -16.2298   33.9935  -28.1061 C   0  0  0  0  0  0  0  0  0  0  0  0
  -16.4433   32.6960  -28.5100 O   0  0  0  0  0  0  0  0  0  0  0  0
  -14.9298   27.4135  -22.9188 O   0  0  0  0  0  0  0  0  0  0  0  0
  -15.6715   34.8108  -28.7818 O   0  0  0  0  0  0  0  0  0  0  0  0
  1  2  1  0
  2  3  2  0
  2  4  1  0
  2  5  1  0
  4  6  1  0
  6  7  1  0
  7  8  1  0
  7  9  1  0
  9 10  1  0
 10 11  2  3
  8 12  1  0
  8 13  2  0
 11 14  1  0
 12 15  1  0
 14 16  1  0
 15 17  1  0
 17 18  1  0
 14 19  2  0
 17 20  2  0
M  END
