
     RDKit          3D

 20 20  0  0  0  0  0  0  0  0999 V2000
  -16.8838   36.5884  -19.6555 O   0  0  0  0  0  0  0  0  0  0  0  0
  -18.0728   36.5381  -20.2681 P   0  0  0  0  0  0  0  0  0  0  0  0
  -18.0415   35.6397  -21.4588 O   0  0  0  0  0  0  0  0  0  0  0  0
  -18.9747   34.5589  -21.8723 P   0  0  0  0  0  0  0  0  0  0  0  0
  -19.7374   34.0167  -20.8063 O   0  0  0  0  0  0  0  0  0  0  0  0
  -18.1634   33.3857  -22.5880 O   0  0  0  0  0  0  0  0  0  0  0  0
  -18.3664   37.9721  -20.7403 O   0  0  0  0  0  0  0  0  0  0  0  0
  -19.0826   36.0150  -19.2667 O   0  0  0  0  0  0  0  0  0  0  0  0
  -20.0268   35.1375  -22.7753 O   0  0  0  0  0  0  0  0  0  0  0  0
  -18.4105   31.9532  -22.5162 P   0  0  0  0  0  0  0  0  0  0  0  0
  -17.4191   31.3435  -23.3657 O   0  0  0  0  0  0  0  0  0  0  0  0
  -16.4326   30.5721  -22.9870 C   0  0  0  0  0  0  0  0  0  0  0  0
  -18.1861   31.4959  -21.0854 O   0  0  0  0  0  0  0  0  0  0  0  0
  -19.8439   31.6561  -23.0045 O   0  0  0  0  0  0  0  0  0  0  0  0
  -16.5344   29.3666  -22.3835 C   0  0  0  0  0  0  0  0  0  0  0  0
  -15.1813   31.2613  -23.1755 C   0  0  0  0  0  0  0  0  0  0  0  0
  -15.4365   28.5116  -22.0464 C   0  0  0  0  0  0  0  0  0  0  0  0
  -14.2382   28.8447  -22.6916 C   0  0  0  0  0  0  0  0  0  0  0  0
  -14.0836   30.2180  -23.0827 C   0  0  0  0  0  0  0  0  0  0  0  0
  -13.2754   28.0725  -22.4601 O   0  0  0  0  0  0  0  0  0  0  0  0
  1  2  1  0
  2  3  1  0
  3  4  1  0
  4  5  1  0
  4  6  1  0
  2  7  2  0
  2  8  1  0
  4  9  2  0
  6 10  1  0
 10 11  1  0
 11 12  1  0
 10 13  1  0
 10 14  2  0
 12 15  2  0
 12 16  1  0
 15 17  1  0
 17 18  2  0
 16 19  2  0
 18 19  1  0
 18 20  1  0
M  END
