
     RDKit          3D

 20 21  0  0  0  0  0  0  0  0999 V2000
  -13.6055   35.1984  -25.9767 O   0  0  0  0  0  0  0  0  0  0  0  0
  -14.9839   35.0448  -25.7620 C   0  0  0  0  0  0  0  0  0  0  0  0
  -15.7235   34.7660  -26.9573 C   0  0  0  0  0  0  0  0  0  0  0  0
  -17.0995   34.3804  -26.5815 C   0  0  0  0  0  0  0  0  0  0  0  0
  -15.5289   35.2313  -24.5637 C   0  0  0  0  0  0  0  0  0  0  0  0
  -17.9774   34.0549  -27.8357 C   0  0  0  0  0  0  0  0  0  0  0  0
  -17.6586   34.4953  -25.3738 C   0  0  0  0  0  0  0  0  0  0  0  0
  -19.1206   34.1864  -25.2324 C   0  0  0  0  0  0  0  0  0  0  0  0
  -14.7655   35.5513  -23.5538 O   0  0  0  0  0  0  0  0  0  0  0  0
  -19.1827   33.5826  -27.5405 C   0  0  0  0  0  0  0  0  0  0  0  0
  -19.7953   33.6860  -26.3380 C   0  0  0  0  0  0  0  0  0  0  0  0
  -16.8745   34.8821  -24.3243 C   0  0  0  0  0  0  0  0  0  0  0  0
  -17.4012   35.3843  -23.1899 O   0  0  0  0  0  0  0  0  0  0  0  0
  -18.3511   34.7881  -22.2325 C   0  0  0  0  0  0  0  0  0  0  0  0
  -18.9060   35.6637  -21.3226 C   0  0  0  0  0  0  0  0  0  0  0  0
  -18.1425   36.8143  -21.0272 O   0  0  0  0  0  0  0  0  0  0  0  0
  -20.2365   35.8704  -21.5676 O   0  0  0  0  0  0  0  0  0  0  0  0
  -17.2263   36.8563  -19.8297 C   0  0  0  0  0  0  0  0  0  0  0  0
  -16.1560   36.4330  -19.9605 O   0  0  0  0  0  0  0  0  0  0  0  0
  -17.7164   37.9338  -19.1943 O   0  0  0  0  0  0  0  0  0  0  0  0
  1  2  1  0
  2  3  2  0
  3  4  1  0
  2  5  1  0
  4  6  1  0
  4  7  2  0
  7  8  1  0
  5  9  1  0
  6 10  2  0
  8 11  2  0
 10 11  1  0
  5 12  2  0
  7 12  1  0
 12 13  1  0
 13 14  1  0
 14 15  1  0
 15 16  1  0
 15 17  1  0
 16 18  1  0
 18 19  2  0
 18 20  1  0
M  END
