
     RDKit          3D

 21 21  0  0  0  0  0  0  0  0999 V2000
  -16.8838   36.5884  -19.6555 O   0  0  0  0  0  0  0  0  0  0  0  0
  -18.0728   36.5381  -20.2681 P   0  0  0  0  0  0  0  0  0  0  0  0
  -18.0415   35.6397  -21.4588 O   0  0  0  0  0  0  0  0  0  0  0  0
  -18.9747   34.5589  -21.8723 P   0  0  0  0  0  0  0  0  0  0  0  0
  -19.7374   34.0167  -20.8063 O   0  0  0  0  0  0  0  0  0  0  0  0
  -18.1634   33.3857  -22.5880 O   0  0  0  0  0  0  0  0  0  0  0  0
  -18.5612   31.8384  -22.5717 P   0  0  0  0  0  0  0  0  0  0  0  0
  -17.6503   31.1356  -23.3372 O   0  0  0  0  0  0  0  0  0  0  0  0
  -18.5635   31.3913  -21.0590 O   0  0  0  0  0  0  0  0  0  0  0  0
  -16.5574   30.3503  -22.8698 C   0  0  0  0  0  0  0  0  0  0  0  0
  -19.9547   31.4529  -23.0377 O   0  0  0  0  0  0  0  0  0  0  0  0
  -18.2599   37.9828  -20.7900 O   0  0  0  0  0  0  0  0  0  0  0  0
  -19.9323   35.2223  -22.8651 O   0  0  0  0  0  0  0  0  0  0  0  0
  -18.8324   36.0101  -19.1595 O   0  0  0  0  0  0  0  0  0  0  0  0
  -16.6146   29.1330  -22.3816 C   0  0  0  0  0  0  0  0  0  0  0  0
  -15.3131   30.8338  -23.3718 C   0  0  0  0  0  0  0  0  0  0  0  0
  -15.2370   32.1841  -24.0753 C   0  0  0  0  0  0  0  0  0  0  0  0
  -15.5137   28.3561  -22.0924 C   0  0  0  0  0  0  0  0  0  0  0  0
  -15.6375   27.1468  -21.3900 O   0  0  0  0  0  0  0  0  0  0  0  0
  -14.1845   30.1252  -23.1065 C   0  0  0  0  0  0  0  0  0  0  0  0
  -14.3042   28.9055  -22.4923 C   0  0  0  0  0  0  0  0  0  0  0  0
  1  2  1  0
  2  3  1  0
  3  4  1  0
  4  5  1  0
  4  6  1  0
  6  7  1  0
  7  8  1  0
  7  9  1  0
  8 10  1  0
  7 11  2  0
  2 12  2  0
  4 13  2  0
  2 14  1  0
 10 15  1  0
 10 16  2  0
 16 17  1  0
 15 18  2  0
 18 19  1  0
 16 20  1  0
 18 21  1  0
 20 21  2  0
M  END
