
     RDKit          3D

 12 13  0  0  0  0  0  0  0  0999 V2000
  -13.6055   35.1984  -25.9767 O   0  0  0  0  0  0  0  0  0  0  0  0
  -14.9839   35.0448  -25.7620 C   0  0  0  0  0  0  0  0  0  0  0  0
  -15.7235   34.7660  -26.9573 C   0  0  0  0  0  0  0  0  0  0  0  0
  -17.0995   34.3804  -26.5815 C   0  0  0  0  0  0  0  0  0  0  0  0
  -15.5289   35.2313  -24.5637 C   0  0  0  0  0  0  0  0  0  0  0  0
  -17.9774   34.0549  -27.8357 C   0  0  0  0  0  0  0  0  0  0  0  0
  -17.6586   34.4953  -25.3738 C   0  0  0  0  0  0  0  0  0  0  0  0
  -19.1206   34.1864  -25.2324 C   0  0  0  0  0  0  0  0  0  0  0  0
  -14.7655   35.5513  -23.5538 O   0  0  0  0  0  0  0  0  0  0  0  0
  -19.1827   33.5826  -27.5405 C   0  0  0  0  0  0  0  0  0  0  0  0
  -19.7953   33.6860  -26.3380 C   0  0  0  0  0  0  0  0  0  0  0  0
  -16.8459   34.8698  -24.2703 C   0  0  0  0  0  0  0  0  0  0  0  0
  1  2  1  0
  2  3  2  0
  3  4  1  0
  2  5  1  0
  4  6  1  0
  4  7  2  0
  7  8  1  0
  5  9  1  0
  6 10  2  0
  8 11  2  0
 10 11  1  0
  5 12  2  0
  7 12  1  0
M  END
