
     RDKit          3D

 21 22  0  0  0  0  0  0  0  0999 V2000
  -20.0791   31.4795  -21.0099 O   0  0  0  0  0  0  0  0  0  0  0  0
  -19.7073   32.8128  -20.6979 P   0  0  0  0  0  0  0  0  0  0  0  0
  -20.7385   33.7623  -20.8754 O   0  0  0  0  0  0  0  0  0  0  0  0
  -18.9750   32.9048  -19.4311 O   0  0  0  0  0  0  0  0  0  0  0  0
  -18.6963   33.2637  -21.8896 O   0  0  0  0  0  0  0  0  0  0  0  0
  -18.0846   32.2047  -22.8283 C   0  0  0  0  0  0  0  0  0  0  0  0
  -17.4775   32.6294  -23.9793 C   0  0  0  0  0  0  0  0  0  0  0  0
  -17.5533   30.9676  -22.2930 C   0  0  0  0  0  0  0  0  0  0  0  0
  -16.6741   30.4415  -23.1590 N   0  0  0  0  0  0  0  0  0  0  0  0
  -17.8318   33.5959  -24.5849 O   0  0  0  0  0  0  0  0  0  0  0  0
  -17.0778   31.2869  -24.5318 C   0  0  0  0  0  0  0  0  0  0  0  0
  -17.5993   34.0806  -25.8976 C   0  0  0  0  0  0  0  0  0  0  0  0
  -16.2709   29.2287  -23.1464 C   0  0  0  0  0  0  0  0  0  0  0  0
  -15.1394   29.0534  -22.3586 O   0  0  0  0  0  0  0  0  0  0  0  0
  -17.7378   33.1566  -26.8853 C   0  0  0  0  0  0  0  0  0  0  0  0
  -16.1986   34.7943  -25.9042 C   0  0  0  0  0  0  0  0  0  0  0  0
  -14.5748   27.8363  -22.2223 C   0  0  0  0  0  0  0  0  0  0  0  0
  -15.7387   35.0091  -27.1003 O   0  0  0  0  0  0  0  0  0  0  0  0
  -16.6072   32.8397  -27.5544 C   0  0  0  0  0  0  0  0  0  0  0  0
  -15.9287   34.0552  -28.1219 C   0  0  0  0  0  0  0  0  0  0  0  0
  -16.0464   35.8348  -24.9367 O   0  0  0  0  0  0  0  0  0  0  0  0
  1  2  1  0
  2  3  2  0
  2  4  1  0
  2  5  1  0
  5  6  1  0
  6  7  1  0
  6  8  1  0
  8  9  1  0
  7 10  1  0
  7 11  1  0
  9 11  1  0
 10 12  1  0
  9 13  1  0
 13 14  1  0
 12 15  1  0
 12 16  1  0
 14 17  1  0
 16 18  1  0
 15 19  1  0
 18 20  1  0
 19 20  1  0
 16 21  1  0
M  END
