
     RDKit          3D

 21 21  0  0  0  0  0  0  0  0999 V2000
  -20.0908   33.2230  -20.2842 O   0  0  0  0  0  0  0  0  0  0  0  0
  -19.3692   34.0030  -20.9429 P   0  0  0  0  0  0  0  0  0  0  0  0
  -18.5104   33.3400  -22.0283 O   0  0  0  0  0  0  0  0  0  0  0  0
  -18.1076   33.7520  -23.3236 C   0  0  0  0  0  0  0  0  0  0  0  0
  -18.3667   34.7304  -20.0969 O   0  0  0  0  0  0  0  0  0  0  0  0
  -20.2617   34.9916  -21.7756 O   0  0  0  0  0  0  0  0  0  0  0  0
  -17.6904   36.2383  -20.1213 P   0  0  0  0  0  0  0  0  0  0  0  0
  -16.1560   35.9831  -20.0755 O   0  0  0  0  0  0  0  0  0  0  0  0
  -17.4858   32.7633  -24.1853 C   0  0  0  0  0  0  0  0  0  0  0  0
  -17.9846   36.7813  -21.5847 O   0  0  0  0  0  0  0  0  0  0  0  0
  -16.9616   37.4707  -22.3908 P   0  0  0  0  0  0  0  0  0  0  0  0
  -18.2969   37.0977  -19.0885 O   0  0  0  0  0  0  0  0  0  0  0  0
  -16.2265   32.7721  -24.2389 O   0  0  0  0  0  0  0  0  0  0  0  0
  -16.7826   36.8205  -23.6713 O   0  0  0  0  0  0  0  0  0  0  0  0
  -17.4061   39.0055  -22.4443 O   0  0  0  0  0  0  0  0  0  0  0  0
  -15.5737   31.5050  -24.3560 C   0  0  0  0  0  0  0  0  0  0  0  0
  -18.1138   31.5136  -23.6930 C   0  0  0  0  0  0  0  0  0  0  0  0
  -19.2113   31.2377  -23.1193 O   0  0  0  0  0  0  0  0  0  0  0  0
  -16.8674   30.7949  -23.2415 C   0  0  0  0  0  0  0  0  0  0  0  0
  -15.6049   37.5342  -21.8625 O   0  0  0  0  0  0  0  0  0  0  0  0
  -16.5750   30.8220  -21.9140 O   0  0  0  0  0  0  0  0  0  0  0  0
  1  2  1  0
  2  3  1  0
  3  4  1  0
  2  5  1  0
  2  6  2  0
  5  7  1  0
  7  8  2  0
  4  9  1  0
  7 10  1  0
 10 11  1  0
  7 12  1  0
  9 13  1  0
 11 14  1  0
 11 15  2  0
 13 16  1  0
  9 17  1  0
 17 18  1  0
 16 19  1  0
 17 19  1  0
 11 20  1  0
 19 21  1  0
M  END
