
     RDKit          3D

  9  8  0  0  0  0  0  0  0  0999 V2000
  -20.3799   33.4956  -20.1200 O   0  0  0  0  0  0  0  0  0  0  0  0
  -19.4389   33.0107  -20.8752 P   0  0  0  0  0  0  0  0  0  0  0  0
  -18.6376   33.9824  -21.3283 O   0  0  0  0  0  0  0  0  0  0  0  0
  -18.8066   35.4279  -22.0133 P   0  0  0  0  0  0  0  0  0  0  0  0
  -18.9779   36.4610  -21.1597 O   0  0  0  0  0  0  0  0  0  0  0  0
  -18.6897   31.8199  -20.3440 O   0  0  0  0  0  0  0  0  0  0  0  0
  -19.5631   35.2466  -22.9504 O   0  0  0  0  0  0  0  0  0  0  0  0
  -17.2560   35.5386  -22.6347 O   0  0  0  0  0  0  0  0  0  0  0  0
  -20.4400   32.6644  -22.1412 O   0  0  0  0  0  0  0  0  0  0  0  0
  1  2  1  0
  2  3  1  0
  3  4  1  0
  4  5  1  0
  2  6  2  0
  4  7  2  0
  4  8  1  0
  2  9  1  0
M  END
