
     RDKit          3D

 21 21  0  0  0  0  0  0  0  0999 V2000
  -20.8284   33.5030  -20.5234 O   0  0  0  0  0  0  0  0  0  0  0  0
  -19.4119   33.1716  -20.7526 P   0  0  0  0  0  0  0  0  0  0  0  0
  -18.7647   34.2768  -20.8296 O   0  0  0  0  0  0  0  0  0  0  0  0
  -18.2085   35.3187  -21.8300 P   0  0  0  0  0  0  0  0  0  0  0  0
  -19.3353   32.2161  -21.9313 O   0  0  0  0  0  0  0  0  0  0  0  0
  -17.5443   36.4686  -21.0970 O   0  0  0  0  0  0  0  0  0  0  0  0
  -19.3964   35.6870  -22.6098 O   0  0  0  0  0  0  0  0  0  0  0  0
  -17.2013   34.7232  -22.8116 O   0  0  0  0  0  0  0  0  0  0  0  0
  -18.4414   31.4240  -22.4132 C   0  0  0  0  0  0  0  0  0  0  0  0
  -18.6347   30.7275  -23.4968 C   0  0  0  0  0  0  0  0  0  0  0  0
  -19.0173   32.2155  -19.6065 O   0  0  0  0  0  0  0  0  0  0  0  0
  -17.8865   31.2547  -24.6950 C   0  0  0  0  0  0  0  0  0  0  0  0
  -16.6491   31.8526  -24.2030 C   0  0  0  0  0  0  0  0  0  0  0  0
  -16.8349   35.2993  -24.1955 P   0  0  0  0  0  0  0  0  0  0  0  0
  -15.5856   31.1245  -23.8840 O   0  0  0  0  0  0  0  0  0  0  0  0
  -16.0657   33.1303  -24.8908 C   0  0  0  0  0  0  0  0  0  0  0  0
  -19.0116   32.0785  -25.2978 C   0  0  0  0  0  0  0  0  0  0  0  0
  -16.8039   34.2061  -25.0681 O   0  0  0  0  0  0  0  0  0  0  0  0
  -17.7763   36.3856  -24.5935 O   0  0  0  0  0  0  0  0  0  0  0  0
  -15.5057   35.7187  -24.1499 O   0  0  0  0  0  0  0  0  0  0  0  0
  -19.5155   31.5425  -26.4719 O   0  0  0  0  0  0  0  0  0  0  0  0
  1  2  1  0
  2  3  1  0
  3  4  1  0
  2  5  1  0
  4  6  1  0
  4  7  2  0
  4  8  1  0
  5  9  1  0
  9 10  1  0
  2 11  2  0
 10 12  1  0
 12 13  1  0
  8 14  1  0
 13 15  1  0
 13 16  1  0
 12 17  1  0
 14 18  1  0
 16 18  1  0
 14 19  1  0
 14 20  2  0
 17 21  1  0
M  END
