
     RDKit          3D

 21 20  0  0  0  0  0  0  0  0999 V2000
  -20.2273   31.0691  -20.7627 O   0  0  0  0  0  0  0  0  0  0  0  0
  -19.5442   32.2655  -20.7148 P   0  0  0  0  0  0  0  0  0  0  0  0
  -18.5501   32.2821  -21.8012 O   0  0  0  0  0  0  0  0  0  0  0  0
  -18.9817   32.5556  -19.3931 O   0  0  0  0  0  0  0  0  0  0  0  0
  -18.1492   31.1893  -22.6571 C   0  0  0  0  0  0  0  0  0  0  0  0
  -16.8443   31.3153  -23.2504 C   0  0  0  0  0  0  0  0  0  0  0  0
  -16.5881   32.2148  -24.2780 C   0  0  0  0  0  0  0  0  0  0  0  0
  -20.5919   33.4246  -21.1270 O   0  0  0  0  0  0  0  0  0  0  0  0
  -15.4293   32.4730  -24.6742 O   0  0  0  0  0  0  0  0  0  0  0  0
  -17.6918   32.9750  -24.6576 N   0  0  0  0  0  0  0  0  0  0  0  0
  -15.9002   30.6436  -22.4171 C   0  0  0  0  0  0  0  0  0  0  0  0
  -15.4820   29.4737  -22.3230 C   0  0  0  0  0  0  0  0  0  0  0  0
  -17.4967   33.9914  -25.8262 C   0  0  0  0  0  0  0  0  0  0  0  0
  -17.1420   35.2610  -25.3216 C   0  0  0  0  0  0  0  0  0  0  0  0
  -16.5225   33.4568  -26.8154 C   0  0  0  0  0  0  0  0  0  0  0  0
  -17.0135   36.1721  -26.1683 O   0  0  0  0  0  0  0  0  0  0  0  0
  -17.1497   35.5947  -24.0757 N   0  0  0  0  0  0  0  0  0  0  0  0
  -18.7096   33.8741  -26.4906 C   0  0  0  0  0  0  0  0  0  0  0  0
  -16.7740   36.9764  -23.6660 O   0  0  0  0  0  0  0  0  0  0  0  0
  -14.5189   28.9076  -22.6319 O   0  0  0  0  0  0  0  0  0  0  0  0
  -16.3055   28.7368  -21.3801 O   0  0  0  0  0  0  0  0  0  0  0  0
  1  2  2  0
  2  3  1  0
  2  4  1  0
  3  5  1  0
  5  6  1  0
  6  7  1  0
  2  8  1  0
  7  9  2  0
  7 10  1  0
  6 11  2  3
 11 12  1  0
 10 13  1  0
 13 14  1  0
 13 15  1  0
 14 16  2  0
 14 17  1  0
 13 18  1  0
 17 19  1  0
 12 20  2  0
 12 21  1  0
M  END
