
     RDKit          3D

 21 21  0  0  0  0  0  0  0  0999 V2000
  -20.2273   31.0691  -20.7627 O   0  0  0  0  0  0  0  0  0  0  0  0
  -19.5442   32.2655  -20.7148 P   0  0  0  0  0  0  0  0  0  0  0  0
  -19.2176   32.6229  -19.4801 O   0  0  0  0  0  0  0  0  0  0  0  0
  -18.1461   32.1856  -21.5963 O   0  0  0  0  0  0  0  0  0  0  0  0
  -18.1683   31.7911  -22.9289 C   0  0  0  0  0  0  0  0  0  0  0  0
  -20.2276   33.4836  -21.4451 O   0  0  0  0  0  0  0  0  0  0  0  0
  -16.9533   31.2480  -23.4206 C   0  0  0  0  0  0  0  0  0  0  0  0
  -16.1309   32.0436  -24.2121 O   0  0  0  0  0  0  0  0  0  0  0  0
  -16.3122   30.1556  -22.8144 C   0  0  0  0  0  0  0  0  0  0  0  0
  -15.0350   29.9205  -22.8519 O   0  0  0  0  0  0  0  0  0  0  0  0
  -16.5652   32.2860  -25.5615 C   0  0  0  0  0  0  0  0  0  0  0  0
  -16.1390   33.6546  -25.9559 C   0  0  0  0  0  0  0  0  0  0  0  0
  -16.4654   34.6759  -24.9070 C   0  0  0  0  0  0  0  0  0  0  0  0
  -16.5817   34.0853  -27.2880 C   0  0  0  0  0  0  0  0  0  0  0  0
  -16.8195   35.2938  -27.5146 C   0  0  0  0  0  0  0  0  0  0  0  0
  -15.5916   35.0997  -24.0588 O   0  0  0  0  0  0  0  0  0  0  0  0
  -15.8491   33.4867  -28.3813 O   0  0  0  0  0  0  0  0  0  0  0  0
  -17.3671   36.1014  -26.4030 O   0  0  0  0  0  0  0  0  0  0  0  0
  -17.2559   35.6537  -25.2521 C   0  0  0  0  0  0  0  0  0  0  0  0
  -18.4299   35.9875  -24.5254 O   0  0  0  0  0  0  0  0  0  0  0  0
  -15.5682   35.8711  -27.9668 O   0  0  0  0  0  0  0  0  0  0  0  0
  1  2  2  0
  2  3  1  0
  2  4  1  0
  4  5  1  0
  2  6  1  0
  5  7  1  0
  7  8  1  0
  7  9  2  3
  9 10  1  0
  8 11  1  0
 11 12  1  0
 12 13  1  0
 12 14  1  0
 14 15  1  0
 13 16  1  0
 14 17  1  0
 15 18  1  0
 13 19  1  0
 18 19  1  0
 19 20  1  0
 15 21  1  0
M  END
