
     RDKit          3D

 22 22  0  0  0  0  0  0  0  0999 V2000
  -16.3208   36.4791  -20.3630 O   0  0  0  0  0  0  0  0  0  0  0  0
  -17.4823   36.9298  -21.1315 P   0  0  0  0  0  0  0  0  0  0  0  0
  -17.7405   35.9551  -22.2498 O   0  0  0  0  0  0  0  0  0  0  0  0
  -18.7010   34.8204  -22.3846 P   0  0  0  0  0  0  0  0  0  0  0  0
  -18.0958   33.6590  -22.8259 O   0  0  0  0  0  0  0  0  0  0  0  0
  -18.4994   31.9714  -22.5959 P   0  0  0  0  0  0  0  0  0  0  0  0
  -18.6301   36.9369  -20.1201 O   0  0  0  0  0  0  0  0  0  0  0  0
  -17.1139   38.2278  -21.5725 O   0  0  0  0  0  0  0  0  0  0  0  0
  -19.9265   35.3647  -23.1293 O   0  0  0  0  0  0  0  0  0  0  0  0
  -19.1336   34.4568  -20.8623 O   0  0  0  0  0  0  0  0  0  0  0  0
  -19.8453   33.1426  -20.3574 P   0  0  0  0  0  0  0  0  0  0  0  0
  -19.4033   31.4926  -23.6383 O   0  0  0  0  0  0  0  0  0  0  0  0
  -19.5967   32.7129  -19.1493 O   0  0  0  0  0  0  0  0  0  0  0  0
  -17.2127   31.1586  -22.5360 O   0  0  0  0  0  0  0  0  0  0  0  0
  -19.1868   31.9951  -21.2354 O   0  0  0  0  0  0  0  0  0  0  0  0
  -16.0278   31.3203  -23.4286 C   0  0  0  0  0  0  0  0  0  0  0  0
  -16.1437   32.0670  -24.4389 C   0  0  0  0  0  0  0  0  0  0  0  0
  -14.8474   30.7941  -22.8090 C   0  0  0  0  0  0  0  0  0  0  0  0
  -14.9349   29.6831  -22.1472 O   0  0  0  0  0  0  0  0  0  0  0  0
  -21.2116   33.3029  -20.8688 O   0  0  0  0  0  0  0  0  0  0  0  0
  -15.4739   28.3258  -22.5217 C   0  0  0  0  0  0  0  0  0  0  0  0
  -15.1950   27.3747  -21.7295 O   0  0  0  0  0  0  0  0  0  0  0  0
  1  2  1  0
  2  3  1  0
  3  4  1  0
  4  5  1  0
  5  6  1  0
  2  7  1  0
  2  8  2  0
  4  9  2  0
  4 10  1  0
 10 11  1  0
  6 12  2  0
 11 13  2  0
  6 14  1  0
  6 15  1  0
 11 15  1  0
 14 16  1  0
 16 17  2  0
 16 18  1  0
 18 19  1  0
 11 20  1  0
 19 21  1  0
 21 22  1  0
M  END
