
     RDKit          3D

 22 22  0  0  0  0  0  0  0  0999 V2000
  -20.8284   33.5030  -20.5234 O   0  0  0  0  0  0  0  0  0  0  0  0
  -19.4119   33.1716  -20.7526 P   0  0  0  0  0  0  0  0  0  0  0  0
  -18.7647   34.2768  -20.8296 O   0  0  0  0  0  0  0  0  0  0  0  0
  -18.2085   35.3187  -21.8300 P   0  0  0  0  0  0  0  0  0  0  0  0
  -19.3353   32.2161  -21.9313 O   0  0  0  0  0  0  0  0  0  0  0  0
  -17.5443   36.4686  -21.0970 O   0  0  0  0  0  0  0  0  0  0  0  0
  -19.3964   35.6870  -22.6098 O   0  0  0  0  0  0  0  0  0  0  0  0
  -17.2013   34.7232  -22.8116 O   0  0  0  0  0  0  0  0  0  0  0  0
  -18.4414   31.4240  -22.4132 C   0  0  0  0  0  0  0  0  0  0  0  0
  -18.6347   30.7275  -23.4968 C   0  0  0  0  0  0  0  0  0  0  0  0
  -19.0173   32.2155  -19.6065 O   0  0  0  0  0  0  0  0  0  0  0  0
  -16.3610   35.5745  -23.9208 P   0  0  0  0  0  0  0  0  0  0  0  0
  -17.7036   31.0503  -24.6017 O   0  0  0  0  0  0  0  0  0  0  0  0
  -17.6199   32.4526  -24.7876 C   0  0  0  0  0  0  0  0  0  0  0  0
  -16.4271   32.8426  -25.5215 C   0  0  0  0  0  0  0  0  0  0  0  0
  -18.8485   32.8212  -25.7284 C   0  0  0  0  0  0  0  0  0  0  0  0
  -16.3558   34.2570  -25.5103 C   0  0  0  0  0  0  0  0  0  0  0  0
  -15.0409   35.7599  -23.9468 O   0  0  0  0  0  0  0  0  0  0  0  0
  -18.6825   32.6660  -26.9013 O   0  0  0  0  0  0  0  0  0  0  0  0
  -15.3668   32.5315  -24.6603 O   0  0  0  0  0  0  0  0  0  0  0  0
  -17.3177   36.6576  -24.3515 O   0  0  0  0  0  0  0  0  0  0  0  0
  -16.2550   34.8810  -26.7366 O   0  0  0  0  0  0  0  0  0  0  0  0
  1  2  1  0
  2  3  1  0
  3  4  1  0
  2  5  1  0
  4  6  1  0
  4  7  2  0
  4  8  1  0
  5  9  1  0
  9 10  1  0
  2 11  2  0
  8 12  1  0
 10 13  1  0
 13 14  1  0
 14 15  1  0
 14 16  1  0
 12 17  1  0
 15 17  1  0
 12 18  2  0
 16 19  1  0
 15 20  1  0
 12 21  1  0
 17 22  2  0
M  END
