
     RDKit          3D

 22 23  0  0  0  0  0  0  0  0999 V2000
  -20.8478   33.4248  -20.3065 O   0  0  0  0  0  0  0  0  0  0  0  0
  -19.4409   33.1702  -20.6718 P   0  0  0  0  0  0  0  0  0  0  0  0
  -19.3960   32.6076  -22.0238 O   0  0  0  0  0  0  0  0  0  0  0  0
  -18.7211   34.5144  -20.6261 O   0  0  0  0  0  0  0  0  0  0  0  0
  -18.8798   31.2234  -22.1817 C   0  0  0  0  0  0  0  0  0  0  0  0
  -18.9321   32.2210  -19.6647 O   0  0  0  0  0  0  0  0  0  0  0  0
  -17.5302   31.1546  -22.7976 C   0  0  0  0  0  0  0  0  0  0  0  0
  -16.8117   30.1508  -22.4157 N   0  0  0  0  0  0  0  0  0  0  0  0
  -17.0980   32.1556  -23.5320 C   0  0  0  0  0  0  0  0  0  0  0  0
  -17.0679   29.0737  -21.5990 C   0  0  0  0  0  0  0  0  0  0  0  0
  -15.4392   30.3372  -22.5290 C   0  0  0  0  0  0  0  0  0  0  0  0
  -14.9017   31.1510  -23.4700 N   0  0  0  0  0  0  0  0  0  0  0  0
  -18.0443   33.2405  -24.1794 C   0  0  0  0  0  0  0  0  0  0  0  0
  -15.7619   32.1697  -23.9698 C   0  0  0  0  0  0  0  0  0  0  0  0
  -17.5601   34.5522  -24.0976 N   0  0  0  0  0  0  0  0  0  0  0  0
  -15.1821   33.0685  -24.8296 N   0  0  0  0  0  0  0  0  0  0  0  0
  -14.7475   29.3747  -22.1639 O   0  0  0  0  0  0  0  0  0  0  0  0
  -17.7951   35.2355  -23.1173 C   0  0  0  0  0  0  0  0  0  0  0  0
  -18.3668   35.1952  -21.9005 C   0  0  0  0  0  0  0  0  0  0  0  0
  -17.0332   36.5290  -23.4593 C   0  0  0  0  0  0  0  0  0  0  0  0
  -17.1979   36.9257  -24.6685 O   0  0  0  0  0  0  0  0  0  0  0  0
  -16.5400   37.0697  -22.4477 O   0  0  0  0  0  0  0  0  0  0  0  0
  1  2  1  0
  2  3  1  0
  2  4  1  0
  3  5  1  0
  2  6  2  0
  5  7  1  0
  7  8  1  0
  7  9  2  0
  8 10  1  0
  8 11  1  0
 11 12  1  0
  9 13  1  0
  9 14  1  0
 12 14  2  0
 13 15  1  0
 14 16  1  0
 11 17  2  0
 15 18  1  0
  4 19  1  0
 18 19  2  0
 18 20  1  0
 20 21  2  0
 20 22  1  0
M  END
