
     RDKit          3D

 23 23  0  0  0  0  0  0  0  0999 V2000
  -14.3635   27.3093  -22.2965 O   0  0  0  0  0  0  0  0  0  0  0  0
  -15.5291   27.8814  -21.8874 C   0  0  0  0  0  0  0  0  0  0  0  0
  -15.5530   29.3045  -22.1817 N   0  0  0  0  0  0  0  0  0  0  0  0
  -14.6506   30.1020  -22.7992 C   0  0  0  0  0  0  0  0  0  0  0  0
  -15.3788   31.2398  -23.3558 C   0  0  0  0  0  0  0  0  0  0  0  0
  -16.5445   27.3355  -21.3683 N   0  0  0  0  0  0  0  0  0  0  0  0
  -16.8094   31.3466  -23.3270 C   0  0  0  0  0  0  0  0  0  0  0  0
  -17.6342   30.4917  -22.6692 O   0  0  0  0  0  0  0  0  0  0  0  0
  -17.4140   32.3058  -24.1288 N   0  0  0  0  0  0  0  0  0  0  0  0
  -16.5888   33.3026  -24.8939 C   0  0  0  0  0  0  0  0  0  0  0  0
  -18.8221   32.5816  -23.9330 C   0  0  0  0  0  0  0  0  0  0  0  0
  -16.4555   34.5913  -24.3498 C   0  0  0  0  0  0  0  0  0  0  0  0
  -17.1994   33.4374  -26.3270 C   0  0  0  0  0  0  0  0  0  0  0  0
  -19.2441   33.2582  -22.7741 C   0  0  0  0  0  0  0  0  0  0  0  0
  -15.4314   35.2185  -24.2948 O   0  0  0  0  0  0  0  0  0  0  0  0
  -16.9807   32.5235  -27.2026 C   0  0  0  0  0  0  0  0  0  0  0  0
  -17.4474   35.2795  -23.7540 O   0  0  0  0  0  0  0  0  0  0  0  0
  -17.2521   35.9923  -22.4523 C   0  0  0  0  0  0  0  0  0  0  0  0
  -18.2050   35.5220  -21.4213 C   0  0  0  0  0  0  0  0  0  0  0  0
  -18.5361   33.9613  -21.8275 O   0  0  0  0  0  0  0  0  0  0  0  0
  -18.4656   35.8168  -20.2771 O   0  0  0  0  0  0  0  0  0  0  0  0
  -20.5872   33.0947  -22.1360 O   0  0  0  0  0  0  0  0  0  0  0  0
  -20.6178   33.0239  -20.6365 C   0  0  0  0  0  0  0  0  0  0  0  0
  1  2  2  0
  2  3  1  0
  3  4  1  0
  4  5  1  0
  2  6  1  0
  5  7  1  0
  7  8  2  0
  7  9  1  0
  9 10  1  0
  9 11  1  0
 10 12  1  0
 10 13  1  0
 11 14  1  0
 12 15  2  0
 13 16  1  0
 12 17  1  0
 17 18  1  0
 18 19  1  0
 14 20  1  0
 19 20  1  0
 19 21  2  0
 14 22  1  0
 22 23  1  0
M  END
