
     RDKit          3D

 23 23  0  0  0  0  0  0  0  0999 V2000
  -17.5652   35.9850  -19.5782 O   0  0  0  0  0  0  0  0  0  0  0  0
  -18.4445   35.8891  -20.5973 P   0  0  0  0  0  0  0  0  0  0  0  0
  -18.2254   36.7048  -21.6160 O   0  0  0  0  0  0  0  0  0  0  0  0
  -18.3438   34.3561  -21.1988 O   0  0  0  0  0  0  0  0  0  0  0  0
  -19.3482   33.2582  -21.1400 P   0  0  0  0  0  0  0  0  0  0  0  0
  -19.8768   36.0549  -20.1571 O   0  0  0  0  0  0  0  0  0  0  0  0
  -19.5150   32.5645  -19.9704 O   0  0  0  0  0  0  0  0  0  0  0  0
  -18.6634   32.1255  -22.1658 O   0  0  0  0  0  0  0  0  0  0  0  0
  -18.6650   32.0003  -23.5613 C   0  0  0  0  0  0  0  0  0  0  0  0
  -17.4949   31.1063  -23.9848 C   0  0  0  0  0  0  0  0  0  0  0  0
  -16.5042   30.9986  -23.0493 O   0  0  0  0  0  0  0  0  0  0  0  0
  -15.9877   29.5888  -22.4993 C   0  0  0  0  0  0  0  0  0  0  0  0
  -20.6454   33.5921  -21.8763 O   0  0  0  0  0  0  0  0  0  0  0  0
  -16.4265   28.6389  -22.6455 O   0  0  0  0  0  0  0  0  0  0  0  0
  -14.6860   29.8041  -22.0373 O   0  0  0  0  0  0  0  0  0  0  0  0
  -16.9325   36.8568  -22.5283 P   0  0  0  0  0  0  0  0  0  0  0  0
  -15.7709   36.4828  -21.9488 O   0  0  0  0  0  0  0  0  0  0  0  0
  -16.8762   32.0861  -25.1288 C   0  0  0  0  0  0  0  0  0  0  0  0
  -17.2786   33.3451  -25.1253 O   0  0  0  0  0  0  0  0  0  0  0  0
  -17.2886   35.9633  -23.7819 O   0  0  0  0  0  0  0  0  0  0  0  0
  -16.9558   38.3307  -23.0265 O   0  0  0  0  0  0  0  0  0  0  0  0
  -16.3961   34.5030  -25.4168 C   0  0  0  0  0  0  0  0  0  0  0  0
  -16.2772   35.5951  -24.6602 C   0  0  0  0  0  0  0  0  0  0  0  0
  1  2  1  0
  2  3  1  0
  2  4  1  0
  4  5  1  0
  2  6  2  0
  5  7  2  0
  5  8  1  0
  8  9  1  0
  9 10  1  0
 10 11  1  0
 11 12  1  0
  5 13  1  0
 12 14  2  0
 12 15  1  0
  3 16  1  0
 16 17  1  0
 10 18  1  0
 18 19  1  0
 16 20  1  0
 16 21  2  0
 19 22  1  0
 20 23  1  0
 22 23  2  0
M  END
