
     RDKit          3D

 23 22  0  0  0  0  0  0  0  0999 V2000
  -16.6051   36.0222  -19.5733 O   0  0  0  0  0  0  0  0  0  0  0  0
  -17.4866   36.5328  -20.5089 P   0  0  0  0  0  0  0  0  0  0  0  0
  -16.6442   37.3596  -21.4175 O   0  0  0  0  0  0  0  0  0  0  0  0
  -18.0585   35.3865  -21.4473 O   0  0  0  0  0  0  0  0  0  0  0  0
  -19.5063   35.2180  -21.6657 C   0  0  0  0  0  0  0  0  0  0  0  0
  -19.7838   33.6476  -21.5619 C   0  0  0  0  0  0  0  0  0  0  0  0
  -18.6774   37.2878  -19.9615 O   0  0  0  0  0  0  0  0  0  0  0  0
  -20.1384   33.2659  -20.2403 O   0  0  0  0  0  0  0  0  0  0  0  0
  -18.8237   32.7462  -21.8896 C   0  0  0  0  0  0  0  0  0  0  0  0
  -18.5158   31.6988  -20.9635 O   0  0  0  0  0  0  0  0  0  0  0  0
  -18.3586   32.6413  -23.0249 C   0  0  0  0  0  0  0  0  0  0  0  0
  -18.6541   33.6471  -24.0475 O   0  0  0  0  0  0  0  0  0  0  0  0
  -17.7320   31.4071  -23.5846 C   0  0  0  0  0  0  0  0  0  0  0  0
  -17.4219   34.2238  -24.6983 C   0  0  0  0  0  0  0  0  0  0  0  0
  -16.4383   31.4115  -23.8397 O   0  0  0  0  0  0  0  0  0  0  0  0
  -15.4994   30.6699  -23.0625 C   0  0  0  0  0  0  0  0  0  0  0  0
  -17.4845   34.4050  -26.1109 C   0  0  0  0  0  0  0  0  0  0  0  0
  -17.1856   35.6517  -26.4615 O   0  0  0  0  0  0  0  0  0  0  0  0
  -14.2784   30.9938  -23.1678 O   0  0  0  0  0  0  0  0  0  0  0  0
  -16.6876   33.7067  -27.0120 C   0  0  0  0  0  0  0  0  0  0  0  0
  -17.0369   32.3487  -27.1617 C   0  0  0  0  0  0  0  0  0  0  0  0
  -15.8825   29.5431  -22.3953 C   0  0  0  0  0  0  0  0  0  0  0  0
  -14.9618   28.5283  -22.1348 O   0  0  0  0  0  0  0  0  0  0  0  0
  1  2  1  0
  2  3  2  0
  2  4  1  0
  4  5  1  0
  5  6  1  0
  2  7  1  0
  6  8  1  0
  6  9  1  0
  9 10  1  0
  9 11  2  3
 11 12  1  0
 11 13  1  0
 12 14  1  0
 13 15  1  0
 15 16  1  0
 14 17  1  0
 17 18  1  0
 16 19  2  0
 17 20  1  0
 20 21  2  0
 16 22  1  0
 22 23  1  0
M  END
