
     RDKit          3D

 23 22  0  0  0  0  0  0  0  0999 V2000
  -20.7815   33.7161  -21.0409 O   0  0  0  0  0  0  0  0  0  0  0  0
  -19.5668   33.3291  -20.7166 P   0  0  0  0  0  0  0  0  0  0  0  0
  -18.9088   32.9682  -22.0472 O   0  0  0  0  0  0  0  0  0  0  0  0
  -18.2856   31.5267  -22.4398 C   0  0  0  0  0  0  0  0  0  0  0  0
  -18.6670   34.4248  -20.2355 O   0  0  0  0  0  0  0  0  0  0  0  0
  -17.9783   35.7963  -21.0212 P   0  0  0  0  0  0  0  0  0  0  0  0
  -19.4625   32.3427  -19.6216 O   0  0  0  0  0  0  0  0  0  0  0  0
  -16.7622   36.1884  -20.2912 O   0  0  0  0  0  0  0  0  0  0  0  0
  -17.6189   31.5337  -23.5945 C   0  0  0  0  0  0  0  0  0  0  0  0
  -19.0941   36.8456  -20.9312 O   0  0  0  0  0  0  0  0  0  0  0  0
  -17.7864   35.3985  -22.4300 O   0  0  0  0  0  0  0  0  0  0  0  0
  -16.6914   36.1489  -23.4036 P   0  0  0  0  0  0  0  0  0  0  0  0
  -16.3862   30.9586  -23.5316 O   0  0  0  0  0  0  0  0  0  0  0  0
  -16.0511   30.4960  -22.1644 C   0  0  0  0  0  0  0  0  0  0  0  0
  -18.2523   31.9555  -24.7387 C   0  0  0  0  0  0  0  0  0  0  0  0
  -16.3658   29.1277  -21.9442 C   0  0  0  0  0  0  0  0  0  0  0  0
  -16.5688   35.3426  -24.6365 O   0  0  0  0  0  0  0  0  0  0  0  0
  -17.3463   37.5755  -23.6113 O   0  0  0  0  0  0  0  0  0  0  0  0
  -15.3499   36.2105  -22.8477 O   0  0  0  0  0  0  0  0  0  0  0  0
  -15.4764   34.7405  -25.1816 C   0  0  0  0  0  0  0  0  0  0  0  0
  -15.8706   34.0308  -26.4735 C   0  0  0  0  0  0  0  0  0  0  0  0
  -16.2980   34.6680  -27.4849 C   0  0  0  0  0  0  0  0  0  0  0  0
  -15.2358   28.2895  -21.9965 O   0  0  0  0  0  0  0  0  0  0  0  0
  1  2  1  0
  2  3  1  0
  3  4  1  0
  2  5  1  0
  5  6  1  0
  2  7  2  0
  6  8  2  0
  4  9  1  0
  6 10  1  0
  6 11  1  0
 11 12  1  0
  9 13  1  0
 13 14  1  0
  9 15  2  0
 14 16  1  0
 12 17  1  0
 12 18  2  0
 12 19  1  0
 17 20  1  0
 20 21  1  0
 21 22  2  0
 16 23  1  0
M  END
