
     RDKit          3D

 24 24  0  0  0  0  0  0  0  0999 V2000
  -16.6579   36.2371  -19.6971 O   0  0  0  0  0  0  0  0  0  0  0  0
  -17.5636   36.6061  -20.6173 P   0  0  0  0  0  0  0  0  0  0  0  0
  -17.7952   35.4315  -21.5659 O   0  0  0  0  0  0  0  0  0  0  0  0
  -17.8737   35.2800  -22.9871 P   0  0  0  0  0  0  0  0  0  0  0  0
  -18.6590   36.1574  -23.5731 O   0  0  0  0  0  0  0  0  0  0  0  0
  -18.5354   33.8524  -23.2073 O   0  0  0  0  0  0  0  0  0  0  0  0
  -18.9439   36.9400  -19.9686 O   0  0  0  0  0  0  0  0  0  0  0  0
  -16.9819   37.7524  -21.2341 O   0  0  0  0  0  0  0  0  0  0  0  0
  -16.4906   35.3222  -23.6518 O   0  0  0  0  0  0  0  0  0  0  0  0
  -18.7525   32.8706  -22.1230 C   0  0  0  0  0  0  0  0  0  0  0  0
  -18.4337   31.6048  -22.3895 C   0  0  0  0  0  0  0  0  0  0  0  0
  -20.0846   33.1312  -21.4274 C   0  0  0  0  0  0  0  0  0  0  0  0
  -17.1701   31.2123  -22.3968 N   0  0  0  0  0  0  0  0  0  0  0  0
  -16.5265   30.5204  -21.4563 C   0  0  0  0  0  0  0  0  0  0  0  0
  -20.1380   32.5548  -20.0988 O   0  0  0  0  0  0  0  0  0  0  0  0
  -19.4643   30.7399  -22.0155 O   0  0  0  0  0  0  0  0  0  0  0  0
  -16.5842   31.1382  -23.7872 C   0  0  0  0  0  0  0  0  0  0  0  0
  -15.3106   30.6597  -23.5554 N   0  0  0  0  0  0  0  0  0  0  0  0
  -17.1031   31.6656  -24.7729 O   0  0  0  0  0  0  0  0  0  0  0  0
  -15.2048   30.1756  -22.2182 C   0  0  0  0  0  0  0  0  0  0  0  0
  -14.4549   29.2031  -21.9172 C   0  0  0  0  0  0  0  0  0  0  0  0
  -14.8814   27.9005  -21.6428 C   0  0  0  0  0  0  0  0  0  0  0  0
  -16.0330   27.5940  -21.8210 O   0  0  0  0  0  0  0  0  0  0  0  0
  -13.9870   26.9779  -21.6445 O   0  0  0  0  0  0  0  0  0  0  0  0
  1  2  1  0
  2  3  1  0
  3  4  1  0
  4  5  1  0
  4  6  1  0
  2  7  1  0
  2  8  2  0
  4  9  2  0
  6 10  1  0
 10 11  1  0
 10 12  1  0
 11 13  1  0
 13 14  1  0
 12 15  1  0
 11 16  2  0
 13 17  1  0
 17 18  1  0
 17 19  2  0
 14 20  1  0
 18 20  1  0
 20 21  2  3
 21 22  1  0
 22 23  2  0
 22 24  1  0
M  END
