
     RDKit          3D

 13 12  0  0  0  0  0  0  0  0999 V2000
  -16.6051   36.0222  -19.5733 O   0  0  0  0  0  0  0  0  0  0  0  0
  -17.4866   36.5328  -20.5089 P   0  0  0  0  0  0  0  0  0  0  0  0
  -17.8698   35.4947  -21.4983 O   0  0  0  0  0  0  0  0  0  0  0  0
  -19.0860   34.5450  -21.2703 P   0  0  0  0  0  0  0  0  0  0  0  0
  -16.4579   37.4319  -21.4550 O   0  0  0  0  0  0  0  0  0  0  0  0
  -18.9621   33.2689  -21.8648 O   0  0  0  0  0  0  0  0  0  0  0  0
  -18.6496   37.3285  -20.0276 O   0  0  0  0  0  0  0  0  0  0  0  0
  -20.3481   35.2690  -21.6934 O   0  0  0  0  0  0  0  0  0  0  0  0
  -18.9481   31.8316  -21.2447 P   0  0  0  0  0  0  0  0  0  0  0  0
  -17.8010   31.5574  -20.7584 O   0  0  0  0  0  0  0  0  0  0  0  0
  -19.0388   34.2984  -19.6427 O   0  0  0  0  0  0  0  0  0  0  0  0
  -20.2499   31.9515  -20.4553 O   0  0  0  0  0  0  0  0  0  0  0  0
  -19.3815   30.9296  -22.4730 O   0  0  0  0  0  0  0  0  0  0  0  0
  1  2  1  0
  2  3  1  0
  3  4  1  0
  2  5  2  0
  4  6  1  0
  2  7  1  0
  4  8  2  0
  6  9  1  0
  9 10  1  0
  4 11  1  0
  9 12  1  0
  9 13  2  0
M  END
