
     RDKit          3D

 24 24  0  0  0  0  0  0  0  0999 V2000
  -20.7815   33.7161  -21.0409 O   0  0  0  0  0  0  0  0  0  0  0  0
  -19.5668   33.3291  -20.7166 P   0  0  0  0  0  0  0  0  0  0  0  0
  -18.9088   32.9682  -22.0472 O   0  0  0  0  0  0  0  0  0  0  0  0
  -18.2856   31.5267  -22.4398 C   0  0  0  0  0  0  0  0  0  0  0  0
  -18.6670   34.4248  -20.2355 O   0  0  0  0  0  0  0  0  0  0  0  0
  -17.9783   35.7963  -21.0212 P   0  0  0  0  0  0  0  0  0  0  0  0
  -19.4625   32.3427  -19.6216 O   0  0  0  0  0  0  0  0  0  0  0  0
  -16.7622   36.1884  -20.2912 O   0  0  0  0  0  0  0  0  0  0  0  0
  -17.6189   31.5337  -23.5945 C   0  0  0  0  0  0  0  0  0  0  0  0
  -19.0941   36.8456  -20.9312 O   0  0  0  0  0  0  0  0  0  0  0  0
  -17.7864   35.3985  -22.4300 O   0  0  0  0  0  0  0  0  0  0  0  0
  -16.2652   31.3577  -23.6189 O   0  0  0  0  0  0  0  0  0  0  0  0
  -16.6671   36.0625  -23.4065 P   0  0  0  0  0  0  0  0  0  0  0  0
  -18.0710   32.2760  -24.5928 C   0  0  0  0  0  0  0  0  0  0  0  0
  -15.5146   30.4502  -22.9825 C   0  0  0  0  0  0  0  0  0  0  0  0
  -16.5813   35.1201  -24.5850 O   0  0  0  0  0  0  0  0  0  0  0  0
  -15.5025   36.0623  -22.6503 O   0  0  0  0  0  0  0  0  0  0  0  0
  -17.3351   37.2442  -23.6860 O   0  0  0  0  0  0  0  0  0  0  0  0
  -15.6482   34.5674  -25.1309 C   0  0  0  0  0  0  0  0  0  0  0  0
  -16.1325   33.5769  -26.1578 C   0  0  0  0  0  0  0  0  0  0  0  0
  -16.2414   29.4780  -22.2225 C   0  0  0  0  0  0  0  0  0  0  0  0
  -15.2631   28.4493  -21.7879 O   0  0  0  0  0  0  0  0  0  0  0  0
  -15.9476   33.7561  -27.4555 O   0  0  0  0  0  0  0  0  0  0  0  0
  -16.6107   32.3446  -25.7258 O   0  0  0  0  0  0  0  0  0  0  0  0
  1  2  1  0
  2  3  1  0
  3  4  1  0
  2  5  1  0
  5  6  1  0
  2  7  2  0
  6  8  2  0
  4  9  1  0
  6 10  1  0
  6 11  1  0
  9 12  1  0
 11 13  1  0
  9 14  1  0
 12 15  1  0
 13 16  1  0
 13 17  1  0
 13 18  2  0
 16 19  1  0
 19 20  1  0
 15 21  1  0
 21 22  1  0
 20 23  2  0
 14 24  1  0
 20 24  1  0
M  END
