
     RDKit          3D

 13 13  0  0  0  0  0  0  0  0999 V2000
  -20.8478   33.4248  -20.3065 O   0  0  0  0  0  0  0  0  0  0  0  0
  -19.5265   32.9039  -20.4937 P   0  0  0  0  0  0  0  0  0  0  0  0
  -18.6503   33.8773  -20.5703 O   0  0  0  0  0  0  0  0  0  0  0  0
  -19.5729   32.3072  -22.0427 O   0  0  0  0  0  0  0  0  0  0  0  0
  -19.0673   31.8211  -19.6861 O   0  0  0  0  0  0  0  0  0  0  0  0
  -18.1566   34.8994  -21.6936 C   0  0  0  0  0  0  0  0  0  0  0  0
  -18.2719   34.4983  -22.8641 C   0  0  0  0  0  0  0  0  0  0  0  0
  -17.3004   36.0218  -21.1946 C   0  0  0  0  0  0  0  0  0  0  0  0
  -16.8293   36.7597  -22.1998 O   0  0  0  0  0  0  0  0  0  0  0  0
  -17.0687   36.3077  -20.0448 O   0  0  0  0  0  0  0  0  0  0  0  0
  -18.5985   32.8482  -23.0487 C   0  0  0  0  0  0  0  0  0  0  0  0
  -18.8745   32.4413  -24.4452 C   0  0  0  0  0  0  0  0  0  0  0  0
  -18.2027   31.2304  -24.7938 O   0  0  0  0  0  0  0  0  0  0  0  0
  1  2  1  0
  2  3  1  0
  2  4  1  0
  2  5  2  0
  3  6  1  0
  6  7  2  0
  6  8  1  0
  8  9  2  0
  8 10  1  0
  4 11  1  0
  7 11  1  0
 11 12  1  0
 12 13  1  0
M  END
