
     RDKit          3D

 25 24  0  0  0  0  0  0  0  0999 V2000
  -21.3302   34.3530  -20.9865 O   0  0  0  0  0  0  0  0  0  0  0  0
  -19.9010   33.9734  -20.9391 P   0  0  0  0  0  0  0  0  0  0  0  0
  -19.2753   33.4194  -22.1837 O   0  0  0  0  0  0  0  0  0  0  0  0
  -18.7100   35.0903  -20.8929 O   0  0  0  0  0  0  0  0  0  0  0  0
  -19.6807   33.1216  -19.6207 O   0  0  0  0  0  0  0  0  0  0  0  0
  -18.3506   36.3501  -20.1369 P   0  0  0  0  0  0  0  0  0  0  0  0
  -17.0506   36.8440  -20.7271 O   0  0  0  0  0  0  0  0  0  0  0  0
  -19.3721   37.4083  -20.5630 O   0  0  0  0  0  0  0  0  0  0  0  0
  -18.5217   32.0573  -22.3483 P   0  0  0  0  0  0  0  0  0  0  0  0
  -18.1209   36.2085  -18.7026 O   0  0  0  0  0  0  0  0  0  0  0  0
  -17.1831   32.1151  -22.3113 O   0  0  0  0  0  0  0  0  0  0  0  0
  -18.9941   31.2588  -23.6166 O   0  0  0  0  0  0  0  0  0  0  0  0
  -19.1083   31.0040  -21.2880 O   0  0  0  0  0  0  0  0  0  0  0  0
  -16.1596   31.1486  -22.7424 C   0  0  0  0  0  0  0  0  0  0  0  0
  -15.4790   31.5490  -23.7953 C   0  0  0  0  0  0  0  0  0  0  0  0
  -15.9314   29.9647  -22.0506 C   0  0  0  0  0  0  0  0  0  0  0  0
  -14.2068   31.2047  -23.8963 O   0  0  0  0  0  0  0  0  0  0  0  0
  -15.9840   32.4232  -24.7023 C   0  0  0  0  0  0  0  0  0  0  0  0
  -16.7251   32.2837  -25.7139 C   0  0  0  0  0  0  0  0  0  0  0  0
  -17.1162   33.3567  -26.6025 C   0  0  0  0  0  0  0  0  0  0  0  0
  -15.6990   29.8715  -20.8526 O   0  0  0  0  0  0  0  0  0  0  0  0
  -16.8412   34.7521  -26.2475 C   0  0  0  0  0  0  0  0  0  0  0  0
  -16.5453   35.4614  -26.9992 O   0  0  0  0  0  0  0  0  0  0  0  0
  -16.9122   35.1299  -24.9105 N   0  0  0  0  0  0  0  0  0  0  0  0
  -16.6512   36.4345  -24.3742 O   0  0  0  0  0  0  0  0  0  0  0  0
  1  2  2  0
  2  3  1  0
  2  4  1  0
  2  5  1  0
  4  6  1  0
  6  7  2  0
  6  8  1  0
  3  9  1  0
  6 10  1  0
  9 11  1  0
  9 12  2  0
  9 13  1  0
 11 14  1  0
 14 15  1  0
 14 16  2  3
 15 17  1  0
 15 18  2  3
 18 19  1  0
 19 20  2  3
 16 21  1  0
 20 22  1  0
 22 23  2  0
 22 24  1  0
 24 25  1  0
M  END
