
     RDKit          3D

 26 28  0  0  0  0  0  0  0  0999 V2000
  -14.3635   27.3093  -22.2965 O   0  0  0  0  0  0  0  0  0  0  0  0
  -15.5291   27.8814  -21.8874 C   0  0  0  0  0  0  0  0  0  0  0  0
  -15.5530   29.3045  -22.1817 N   0  0  0  0  0  0  0  0  0  0  0  0
  -14.6506   30.1020  -22.7992 C   0  0  0  0  0  0  0  0  0  0  0  0
  -15.3788   31.2398  -23.3558 C   0  0  0  0  0  0  0  0  0  0  0  0
  -16.5445   27.3355  -21.3683 N   0  0  0  0  0  0  0  0  0  0  0  0
  -16.8094   31.3466  -23.3270 C   0  0  0  0  0  0  0  0  0  0  0  0
  -17.6342   30.4917  -22.6692 C   0  0  0  0  0  0  0  0  0  0  0  0
  -18.9998   30.7795  -22.6891 C   0  0  0  0  0  0  0  0  0  0  0  0
  -17.0003   29.3438  -21.9910 C   0  0  0  0  0  0  0  0  0  0  0  0
  -17.3478   32.4816  -23.9492 N   0  0  0  0  0  0  0  0  0  0  0  0
  -19.2764   32.1153  -22.8919 N   0  0  0  0  0  0  0  0  0  0  0  0
  -18.5762   32.9061  -23.6818 C   0  0  0  0  0  0  0  0  0  0  0  0
  -20.3930   32.7354  -22.0016 S   0  0  0  0  0  0  0  0  0  0  0  0
  -20.4125   34.0721  -22.0867 O   0  0  0  0  0  0  0  0  0  0  0  0
  -18.9348   34.0095  -24.3423 O   0  0  0  0  0  0  0  0  0  0  0  0
  -16.4789   33.1031  -25.0444 C   0  0  0  0  0  0  0  0  0  0  0  0
  -16.6588   32.5690  -26.3472 C   0  0  0  0  0  0  0  0  0  0  0  0
  -15.6600   34.3174  -24.8815 C   0  0  0  0  0  0  0  0  0  0  0  0
  -16.0509   33.2696  -27.4429 C   0  0  0  0  0  0  0  0  0  0  0  0
  -15.2387   34.9779  -25.9234 C   0  0  0  0  0  0  0  0  0  0  0  0
  -16.2645   32.7177  -28.7563 F   0  0  0  0  0  0  0  0  0  0  0  0
  -14.4471   36.0883  -25.7384 F   0  0  0  0  0  0  0  0  0  0  0  0
  -15.3830   34.4723  -27.2536 C   0  0  0  0  0  0  0  0  0  0  0  0
  -21.5993   32.1416  -22.0952 O   0  0  0  0  0  0  0  0  0  0  0  0
  -20.0294   32.3297  -20.4954 O   0  0  0  0  0  0  0  0  0  0  0  0
  1  2  2  0
  2  3  1  0
  3  4  1  0
  4  5  1  0
  2  6  1  0
  5  7  1  0
  7  8  2  0
  8  9  1  0
  3 10  1  0
  8 10  1  0
  7 11  1  0
  9 12  1  0
 11 13  1  0
 12 13  1  0
 12 14  1  0
 14 15  1  0
 13 16  2  0
 11 17  1  0
 17 18  1  0
 17 19  2  0
 18 20  2  0
 19 21  1  0
 20 22  1  0
 21 23  1  0
 20 24  1  0
 21 24  2  0
 14 25  1  0
 14 26  1  0
M  END
