
     RDKit          3D

 26 26  0  0  0  0  0  0  0  0999 V2000
  -20.8478   33.4248  -20.3065 O   0  0  0  0  0  0  0  0  0  0  0  0
  -19.4409   33.1702  -20.6718 P   0  0  0  0  0  0  0  0  0  0  0  0
  -18.8028   34.3226  -20.8283 O   0  0  0  0  0  0  0  0  0  0  0  0
  -18.9379   32.0517  -19.8356 O   0  0  0  0  0  0  0  0  0  0  0  0
  -19.1917   35.9962  -21.1701 P   0  0  0  0  0  0  0  0  0  0  0  0
  -19.6224   32.5431  -22.1942 O   0  0  0  0  0  0  0  0  0  0  0  0
  -18.5407   32.5784  -23.2245 C   0  0  0  0  0  0  0  0  0  0  0  0
  -18.1960   31.4571  -23.8609 C   0  0  0  0  0  0  0  0  0  0  0  0
  -16.7217   31.2764  -23.9072 C   0  0  0  0  0  0  0  0  0  0  0  0
  -18.4827   30.0970  -23.2938 O   0  0  0  0  0  0  0  0  0  0  0  0
  -15.9935   30.5541  -23.0176 C   0  0  0  0  0  0  0  0  0  0  0  0
  -19.6037   36.5586  -20.0475 O   0  0  0  0  0  0  0  0  0  0  0  0
  -16.0742   32.7349  -24.0639 O   0  0  0  0  0  0  0  0  0  0  0  0
  -20.0436   35.8940  -22.3197 O   0  0  0  0  0  0  0  0  0  0  0  0
  -14.7309   30.7412  -22.7961 O   0  0  0  0  0  0  0  0  0  0  0  0
  -16.4932   29.4585  -22.4386 O   0  0  0  0  0  0  0  0  0  0  0  0
  -17.7058   36.5391  -21.5792 O   0  0  0  0  0  0  0  0  0  0  0  0
  -16.3216   33.4843  -25.2363 C   0  0  0  0  0  0  0  0  0  0  0  0
  -16.0997   34.8877  -24.9578 C   0  0  0  0  0  0  0  0  0  0  0  0
  -15.7408   35.3747  -26.0055 O   0  0  0  0  0  0  0  0  0  0  0  0
  -16.6125   35.3737  -23.8605 N   0  0  0  0  0  0  0  0  0  0  0  0
  -16.6153   36.7664  -23.6409 O   0  0  0  0  0  0  0  0  0  0  0  0
  -17.3046   37.5471  -22.4883 P   0  0  0  0  0  0  0  0  0  0  0  0
  -18.6159   38.1841  -22.6637 O   0  0  0  0  0  0  0  0  0  0  0  0
  -16.4405   38.5047  -21.8767 O   0  0  0  0  0  0  0  0  0  0  0  0
  -15.5207   28.4910  -21.6421 C   0  0  0  0  0  0  0  0  0  0  0  0
  1  2  1  0
  2  3  1  0
  2  4  2  0
  3  5  1  0
  2  6  1  0
  6  7  1  0
  7  8  1  0
  8  9  1  0
  8 10  1  0
  9 11  1  0
  5 12  1  0
  9 13  1  0
  5 14  2  0
 11 15  2  0
 11 16  1  0
  5 17  1  0
 13 18  1  0
 18 19  1  0
 19 20  2  0
 19 21  1  0
 21 22  1  0
 17 23  1  0
 22 23  1  0
 23 24  1  0
 23 25  2  0
 16 26  1  0
M  END
