
     RDKit          3D

 26 28  0  0  0  0  0  0  0  0999 V2000
  -20.8284   33.5030  -20.5234 O   0  0  0  0  0  0  0  0  0  0  0  0
  -19.4119   33.1716  -20.7526 P   0  0  0  0  0  0  0  0  0  0  0  0
  -18.7647   34.2768  -20.8296 O   0  0  0  0  0  0  0  0  0  0  0  0
  -18.2085   35.3187  -21.8300 P   0  0  0  0  0  0  0  0  0  0  0  0
  -19.3353   32.2161  -21.9313 O   0  0  0  0  0  0  0  0  0  0  0  0
  -17.5443   36.4686  -21.0970 O   0  0  0  0  0  0  0  0  0  0  0  0
  -19.3964   35.6870  -22.6098 O   0  0  0  0  0  0  0  0  0  0  0  0
  -17.2013   34.7232  -22.8116 O   0  0  0  0  0  0  0  0  0  0  0  0
  -18.4414   31.4240  -22.4132 C   0  0  0  0  0  0  0  0  0  0  0  0
  -18.6347   30.7275  -23.4968 C   0  0  0  0  0  0  0  0  0  0  0  0
  -19.0173   32.2155  -19.6065 O   0  0  0  0  0  0  0  0  0  0  0  0
  -16.3610   35.5745  -23.9208 P   0  0  0  0  0  0  0  0  0  0  0  0
  -17.7036   31.0503  -24.6017 O   0  0  0  0  0  0  0  0  0  0  0  0
  -17.6199   32.4526  -24.7876 C   0  0  0  0  0  0  0  0  0  0  0  0
  -16.4271   32.8426  -25.5215 C   0  0  0  0  0  0  0  0  0  0  0  0
  -18.8485   32.8212  -25.7284 C   0  0  0  0  0  0  0  0  0  0  0  0
  -18.4558   33.0956  -26.9836 O   0  0  0  0  0  0  0  0  0  0  0  0
  -17.4782   34.0575  -27.1896 C   0  0  0  0  0  0  0  0  0  0  0  0
  -16.4462   34.1162  -26.2585 C   0  0  0  0  0  0  0  0  0  0  0  0
  -16.2095   35.1859  -25.4464 O   0  0  0  0  0  0  0  0  0  0  0  0
  -16.9536   33.7653  -28.5643 O   0  0  0  0  0  0  0  0  0  0  0  0
  -15.4529   32.8523  -24.5242 O   0  0  0  0  0  0  0  0  0  0  0  0
  -15.6423   33.4282  -28.4737 C   0  0  0  0  0  0  0  0  0  0  0  0
  -15.3098   34.2269  -27.2800 C   0  0  0  0  0  0  0  0  0  0  0  0
  -15.1183   36.1676  -23.7006 O   0  0  0  0  0  0  0  0  0  0  0  0
  -17.5874   36.7589  -24.2000 O   0  0  0  0  0  0  0  0  0  0  0  0
  1  2  1  0
  2  3  1  0
  3  4  1  0
  2  5  1  0
  4  6  1  0
  4  7  2  0
  4  8  1  0
  5  9  1  0
  9 10  1  0
  2 11  2  0
  8 12  1  0
 10 13  1  0
 13 14  1  0
 14 15  1  0
 14 16  1  0
 16 17  1  0
 17 18  1  0
 15 19  1  0
 18 19  1  0
 12 20  1  0
 19 20  1  0
 18 21  1  0
 15 22  1  0
 21 23  1  0
 19 24  1  0
 23 24  1  0
 12 25  1  0
 12 26  2  0
M  END
