
     RDKit          3D

 14 13  0  0  0  0  0  0  0  0999 V2000
  -16.6579   36.2371  -19.6971 O   0  0  0  0  0  0  0  0  0  0  0  0
  -17.8267   36.4497  -20.3181 P   0  0  0  0  0  0  0  0  0  0  0  0
  -17.9547   35.4865  -21.4812 O   0  0  0  0  0  0  0  0  0  0  0  0
  -17.8632   35.6282  -22.9106 P   0  0  0  0  0  0  0  0  0  0  0  0
  -19.0277   36.0568  -19.3277 O   0  0  0  0  0  0  0  0  0  0  0  0
  -17.9935   37.7869  -20.9695 O   0  0  0  0  0  0  0  0  0  0  0  0
  -16.4624   35.7812  -23.2310 O   0  0  0  0  0  0  0  0  0  0  0  0
  -18.6468   36.7028  -23.6097 O   0  0  0  0  0  0  0  0  0  0  0  0
  -18.2913   34.2511  -23.6054 O   0  0  0  0  0  0  0  0  0  0  0  0
  -18.8290   33.1636  -22.8137 C   0  0  0  0  0  0  0  0  0  0  0  0
  -18.3095   31.8477  -23.1632 C   0  0  0  0  0  0  0  0  0  0  0  0
  -17.9518   31.1280  -22.2718 O   0  0  0  0  0  0  0  0  0  0  0  0
  -17.2270   31.9151  -24.2411 C   0  0  0  0  0  0  0  0  0  0  0  0
  -16.2040   31.2084  -23.8703 O   0  0  0  0  0  0  0  0  0  0  0  0
  1  2  1  0
  2  3  1  0
  3  4  1  0
  2  5  1  0
  2  6  2  0
  4  7  1  0
  4  8  2  0
  4  9  1  0
  9 10  1  0
 10 11  1  0
 11 12  1  0
 11 13  1  0
 13 14  1  0
M  END
