
     RDKit          3D

 26 28  0  0  0  0  0  0  0  0999 V2000
  -12.8187   26.9409  -22.2627 O   0  0  0  0  0  0  0  0  0  0  0  0
  -13.8809   26.9107  -21.6533 C   0  0  0  0  0  0  0  0  0  0  0  0
  -14.8432   27.8445  -22.3981 C   0  0  0  0  0  0  0  0  0  0  0  0
  -14.4300   29.0234  -22.8069 O   0  0  0  0  0  0  0  0  0  0  0  0
  -15.3273   30.1558  -22.8063 C   0  0  0  0  0  0  0  0  0  0  0  0
  -16.5669   29.9190  -22.4633 C   0  0  0  0  0  0  0  0  0  0  0  0
  -17.4674   31.0577  -22.5036 C   0  0  0  0  0  0  0  0  0  0  0  0
  -14.7003   31.2935  -23.0912 C   0  0  0  0  0  0  0  0  0  0  0  0
  -15.6780   32.3909  -23.2972 C   0  0  0  0  0  0  0  0  0  0  0  0
  -18.8638   30.9158  -22.1656 N   0  0  0  0  0  0  0  0  0  0  0  0
  -19.4530   31.9628  -21.3197 C   0  0  0  0  0  0  0  0  0  0  0  0
  -17.0208   32.2941  -22.9439 C   0  0  0  0  0  0  0  0  0  0  0  0
  -20.1323   31.7463  -20.4589 O   0  0  0  0  0  0  0  0  0  0  0  0
  -19.3645   33.3725  -21.8919 C   0  0  0  0  0  0  0  0  0  0  0  0
  -17.8421   33.4498  -23.1263 C   0  0  0  0  0  0  0  0  0  0  0  0
  -18.4632   33.3539  -24.3998 N   0  0  0  0  0  0  0  0  0  0  0  0
  -18.9084   34.3018  -20.8583 O   0  0  0  0  0  0  0  0  0  0  0  0
  -18.2448   34.3748  -25.3663 C   0  0  0  0  0  0  0  0  0  0  0  0
  -18.0252   33.9175  -26.6796 C   0  0  0  0  0  0  0  0  0  0  0  0
  -17.1960   35.2912  -24.8155 C   0  0  0  0  0  0  0  0  0  0  0  0
  -16.5962   34.2351  -27.1690 C   0  0  0  0  0  0  0  0  0  0  0  0
  -18.2915   32.4439  -26.8737 C   0  0  0  0  0  0  0  0  0  0  0  0
  -17.3142   36.1922  -24.0696 O   0  0  0  0  0  0  0  0  0  0  0  0
  -16.1214   35.4919  -25.8932 C   0  0  0  0  0  0  0  0  0  0  0  0
  -15.9138   36.5334  -26.7209 C   0  0  0  0  0  0  0  0  0  0  0  0
  -14.9426   35.1246  -25.1884 O   0  0  0  0  0  0  0  0  0  0  0  0
  1  2  1  0
  2  3  1  0
  3  4  1  0
  4  5  1  0
  5  6  2  0
  6  7  1  0
  5  8  1  0
  8  9  2  0
  7 10  1  0
 10 11  1  0
  7 12  2  0
  9 12  1  0
 11 13  2  0
 11 14  1  0
 12 15  1  0
 14 15  1  0
 15 16  1  0
 14 17  1  0
 16 18  1  0
 18 19  1  0
 18 20  1  0
 19 21  1  0
 19 22  1  0
 20 23  2  0
 20 24  1  0
 21 24  1  0
 24 25  1  0
 24 26  1  0
M  END
