
     RDKit          3D

 15 14  0  0  0  0  0  0  0  0999 V2000
  -17.5652   35.9850  -19.5782 O   0  0  0  0  0  0  0  0  0  0  0  0
  -17.1993   36.6393  -20.6072 P   0  0  0  0  0  0  0  0  0  0  0  0
  -17.8050   37.8275  -20.8295 O   0  0  0  0  0  0  0  0  0  0  0  0
  -17.7122   35.8491  -21.9997 O   0  0  0  0  0  0  0  0  0  0  0  0
  -15.7635   36.7085  -21.0491 O   0  0  0  0  0  0  0  0  0  0  0  0
  -17.4142   36.1184  -23.4844 P   0  0  0  0  0  0  0  0  0  0  0  0
  -17.7830   34.9575  -24.3124 O   0  0  0  0  0  0  0  0  0  0  0  0
  -16.6684   34.0726  -24.9872 P   0  0  0  0  0  0  0  0  0  0  0  0
  -15.9486   36.5182  -23.4599 O   0  0  0  0  0  0  0  0  0  0  0  0
  -17.4915   32.8805  -25.5431 O   0  0  0  0  0  0  0  0  0  0  0  0
  -18.0529   37.3880  -24.0009 O   0  0  0  0  0  0  0  0  0  0  0  0
  -15.5796   33.6464  -24.1940 O   0  0  0  0  0  0  0  0  0  0  0  0
  -16.1961   34.8055  -26.3170 O   0  0  0  0  0  0  0  0  0  0  0  0
  -16.5778   34.6953  -27.7160 C   0  0  0  0  0  0  0  0  0  0  0  0
  -16.1517   35.6712  -28.4528 C   0  0  0  0  0  0  0  0  0  0  0  0
  1  2  1  0
  2  3  2  0
  2  4  1  0
  2  5  1  0
  4  6  1  0
  6  7  1  0
  7  8  1  0
  6  9  2  0
  8 10  2  0
  6 11  1  0
  8 12  1  0
  8 13  1  0
 13 14  1  0
 14 15  1  0
M  END
