
     RDKit          3D

 27 29  0  0  0  0  0  0  0  0999 V2000
  -20.8478   33.4248  -20.3065 O   0  0  0  0  0  0  0  0  0  0  0  0
  -19.4409   33.1702  -20.6718 P   0  0  0  0  0  0  0  0  0  0  0  0
  -18.8028   34.3226  -20.8283 O   0  0  0  0  0  0  0  0  0  0  0  0
  -18.9379   32.0517  -19.8356 O   0  0  0  0  0  0  0  0  0  0  0  0
  -19.1917   35.9962  -21.1701 P   0  0  0  0  0  0  0  0  0  0  0  0
  -19.6224   32.5431  -22.1942 O   0  0  0  0  0  0  0  0  0  0  0  0
  -18.5407   32.5784  -23.2245 C   0  0  0  0  0  0  0  0  0  0  0  0
  -18.1960   31.4571  -23.8609 C   0  0  0  0  0  0  0  0  0  0  0  0
  -16.7217   31.2764  -23.9072 C   0  0  0  0  0  0  0  0  0  0  0  0
  -17.8031   36.6312  -21.1376 O   0  0  0  0  0  0  0  0  0  0  0  0
  -16.0287   30.4757  -22.9717 C   0  0  0  0  0  0  0  0  0  0  0  0
  -19.8223   35.8744  -22.4652 O   0  0  0  0  0  0  0  0  0  0  0  0
  -20.0233   36.5624  -20.0977 O   0  0  0  0  0  0  0  0  0  0  0  0
  -16.0865   32.7197  -24.0821 C   0  0  0  0  0  0  0  0  0  0  0  0
  -16.5146   29.3408  -22.5505 N   0  0  0  0  0  0  0  0  0  0  0  0
  -15.7017   28.5328  -21.7847 C   0  0  0  0  0  0  0  0  0  0  0  0
  -17.2469   33.6615  -24.1184 C   0  0  0  0  0  0  0  0  0  0  0  0
  -18.1114   33.8134  -23.1992 O   0  0  0  0  0  0  0  0  0  0  0  0
  -17.6226   33.7441  -25.5649 C   0  0  0  0  0  0  0  0  0  0  0  0
  -17.8630   34.9612  -26.1127 N   0  0  0  0  0  0  0  0  0  0  0  0
  -16.8721   35.4131  -26.9041 C   0  0  0  0  0  0  0  0  0  0  0  0
  -15.9596   34.6361  -27.4589 N   0  0  0  0  0  0  0  0  0  0  0  0
  -16.0983   27.6435  -20.9743 O   0  0  0  0  0  0  0  0  0  0  0  0
  -14.4843   28.1351  -22.5536 O   0  0  0  0  0  0  0  0  0  0  0  0
  -15.4077   32.9307  -25.3511 O   0  0  0  0  0  0  0  0  0  0  0  0
  -16.3507   33.2707  -27.6565 C   0  0  0  0  0  0  0  0  0  0  0  0
  -16.6216   32.8486  -26.1949 C   0  0  0  0  0  0  0  0  0  0  0  0
  1  2  1  0
  2  3  1  0
  2  4  2  0
  3  5  1  0
  2  6  1  0
  6  7  1  0
  7  8  1  0
  8  9  1  0
  5 10  1  0
  9 11  1  0
  5 12  2  0
  5 13  1  0
  9 14  1  0
 11 15  2  3
 15 16  1  0
 14 17  1  0
  7 18  1  0
 17 18  1  0
 17 19  1  0
 19 20  1  0
 20 21  1  0
 21 22  2  0
 16 23  2  0
 16 24  1  0
 14 25  1  0
 22 26  1  0
 19 27  1  0
 25 27  1  0
 26 27  1  0
M  END
