
     RDKit          3D

 27 26  0  0  0  0  0  0  0  0999 V2000
  -20.8284   33.5030  -20.5234 O   0  0  0  0  0  0  0  0  0  0  0  0
  -19.4119   33.1716  -20.7526 P   0  0  0  0  0  0  0  0  0  0  0  0
  -18.7647   34.2768  -20.8296 O   0  0  0  0  0  0  0  0  0  0  0  0
  -18.2085   35.3187  -21.8300 P   0  0  0  0  0  0  0  0  0  0  0  0
  -19.3353   32.2161  -21.9313 O   0  0  0  0  0  0  0  0  0  0  0  0
  -17.5443   36.4686  -21.0970 O   0  0  0  0  0  0  0  0  0  0  0  0
  -19.3964   35.6870  -22.6098 O   0  0  0  0  0  0  0  0  0  0  0  0
  -17.2013   34.7232  -22.8116 O   0  0  0  0  0  0  0  0  0  0  0  0
  -18.4414   31.4240  -22.4132 C   0  0  0  0  0  0  0  0  0  0  0  0
  -17.2309   31.4702  -21.9588 C   0  0  0  0  0  0  0  0  0  0  0  0
  -18.8194   30.6940  -23.6686 C   0  0  0  0  0  0  0  0  0  0  0  0
  -19.0006   32.2132  -19.5912 O   0  0  0  0  0  0  0  0  0  0  0  0
  -20.0052   31.2912  -24.3813 O   0  0  0  0  0  0  0  0  0  0  0  0
  -19.6600   32.2301  -25.3580 C   0  0  0  0  0  0  0  0  0  0  0  0
  -16.2096   30.4737  -22.3379 C   0  0  0  0  0  0  0  0  0  0  0  0
  -20.2401   31.9027  -26.6834 C   0  0  0  0  0  0  0  0  0  0  0  0
  -21.4933   32.1096  -26.7488 O   0  0  0  0  0  0  0  0  0  0  0  0
  -15.0651   30.8767  -22.9415 O   0  0  0  0  0  0  0  0  0  0  0  0
  -16.1694   29.2829  -21.8341 C   0  0  0  0  0  0  0  0  0  0  0  0
  -16.2732   35.5396  -23.7875 P   0  0  0  0  0  0  0  0  0  0  0  0
  -15.7318   34.4411  -24.7772 O   0  0  0  0  0  0  0  0  0  0  0  0
  -15.2637   36.1724  -23.2727 O   0  0  0  0  0  0  0  0  0  0  0  0
  -17.4254   36.1449  -24.7721 O   0  0  0  0  0  0  0  0  0  0  0  0
  -17.0044   28.6323  -21.0524 C   0  0  0  0  0  0  0  0  0  0  0  0
  -18.0443   32.3997  -25.5238 C   0  0  0  0  0  0  0  0  0  0  0  0
  -14.9938   28.3475  -22.1831 O   0  0  0  0  0  0  0  0  0  0  0  0
  -17.6674   32.7819  -26.7417 O   0  0  0  0  0  0  0  0  0  0  0  0
  1  2  1  0
  2  3  1  0
  3  4  1  0
  2  5  1  0
  4  6  1  0
  4  7  2  0
  4  8  1  0
  5  9  1  0
  9 10  2  3
  9 11  1  0
  2 12  2  0
 11 13  1  0
 13 14  1  0
 10 15  1  0
 14 16  1  0
 16 17  1  0
 15 18  1  0
 15 19  2  3
  8 20  1  0
 20 21  1  0
 20 22  1  0
 20 23  2  0
 19 24  1  0
 14 25  1  0
 19 26  1  0
 25 27  1  0
M  END
