
     RDKit          3D

 28 28  0  0  0  0  0  0  0  0999 V2000
  -16.6051   36.0222  -19.5733 O   0  0  0  0  0  0  0  0  0  0  0  0
  -17.4866   36.5328  -20.5089 P   0  0  0  0  0  0  0  0  0  0  0  0
  -17.8698   35.4947  -21.4983 O   0  0  0  0  0  0  0  0  0  0  0  0
  -19.0860   34.5450  -21.2703 P   0  0  0  0  0  0  0  0  0  0  0  0
  -16.4579   37.4319  -21.4550 O   0  0  0  0  0  0  0  0  0  0  0  0
  -18.9621   33.2689  -21.8648 O   0  0  0  0  0  0  0  0  0  0  0  0
  -18.6496   37.3285  -20.0276 O   0  0  0  0  0  0  0  0  0  0  0  0
  -20.3481   35.2690  -21.6934 O   0  0  0  0  0  0  0  0  0  0  0  0
  -18.9481   31.8316  -21.2447 P   0  0  0  0  0  0  0  0  0  0  0  0
  -19.0405   34.3813  -19.6821 O   0  0  0  0  0  0  0  0  0  0  0  0
  -20.1585   31.6039  -21.0051 O   0  0  0  0  0  0  0  0  0  0  0  0
  -18.3418   30.8907  -22.3677 O   0  0  0  0  0  0  0  0  0  0  0  0
  -17.0147   30.9184  -23.0344 C   0  0  0  0  0  0  0  0  0  0  0  0
  -17.9635   31.8506  -20.2031 O   0  0  0  0  0  0  0  0  0  0  0  0
  -16.0563   30.1480  -22.5247 C   0  0  0  0  0  0  0  0  0  0  0  0
  -16.2676   28.7819  -21.9581 C   0  0  0  0  0  0  0  0  0  0  0  0
  -16.8256   31.9144  -24.0213 C   0  0  0  0  0  0  0  0  0  0  0  0
  -17.8581   32.7312  -24.5829 C   0  0  0  0  0  0  0  0  0  0  0  0
  -15.4954   31.8778  -24.4960 O   0  0  0  0  0  0  0  0  0  0  0  0
  -18.6098   32.1700  -25.5230 C   0  0  0  0  0  0  0  0  0  0  0  0
  -19.0995   32.9185  -26.6722 C   0  0  0  0  0  0  0  0  0  0  0  0
  -17.3424   33.7396  -25.2895 O   0  0  0  0  0  0  0  0  0  0  0  0
  -18.0849   34.1071  -26.5079 C   0  0  0  0  0  0  0  0  0  0  0  0
  -15.1070   28.0335  -21.9284 O   0  0  0  0  0  0  0  0  0  0  0  0
  -17.0416   34.1872  -27.5997 C   0  0  0  0  0  0  0  0  0  0  0  0
  -20.3373   33.2119  -26.9302 O   0  0  0  0  0  0  0  0  0  0  0  0
  -19.8416   31.5330  -25.0960 O   0  0  0  0  0  0  0  0  0  0  0  0
  -16.2576   33.0434  -27.7185 O   0  0  0  0  0  0  0  0  0  0  0  0
  1  2  1  0
  2  3  1  0
  3  4  1  0
  2  5  2  0
  4  6  1  0
  2  7  1  0
  4  8  2  0
  6  9  1  0
  4 10  1  0
  9 11  2  0
  9 12  1  0
 12 13  1  0
  9 14  1  0
 13 15  1  0
 15 16  1  0
 13 17  2  3
 17 18  1  0
 17 19  1  0
 18 20  1  0
 20 21  1  0
 18 22  1  0
 21 23  1  0
 22 23  1  0
 16 24  1  0
 23 25  1  0
 21 26  1  0
 20 27  1  0
 25 28  1  0
M  END
