
     RDKit          3D

 28 29  0  0  0  0  0  0  0  0999 V2000
  -20.8284   33.5030  -20.5234 O   0  0  0  0  0  0  0  0  0  0  0  0
  -19.4119   33.1716  -20.7526 P   0  0  0  0  0  0  0  0  0  0  0  0
  -18.7647   34.2768  -20.8296 O   0  0  0  0  0  0  0  0  0  0  0  0
  -18.2085   35.3187  -21.8300 P   0  0  0  0  0  0  0  0  0  0  0  0
  -19.3353   32.2161  -21.9313 O   0  0  0  0  0  0  0  0  0  0  0  0
  -17.5443   36.4686  -21.0970 O   0  0  0  0  0  0  0  0  0  0  0  0
  -19.3964   35.6870  -22.6098 O   0  0  0  0  0  0  0  0  0  0  0  0
  -17.2013   34.7232  -22.8116 O   0  0  0  0  0  0  0  0  0  0  0  0
  -18.4414   31.4240  -22.4132 C   0  0  0  0  0  0  0  0  0  0  0  0
  -17.2309   31.4702  -21.9588 C   0  0  0  0  0  0  0  0  0  0  0  0
  -18.8194   30.6940  -23.6686 C   0  0  0  0  0  0  0  0  0  0  0  0
  -19.0006   32.2132  -19.5912 O   0  0  0  0  0  0  0  0  0  0  0  0
  -20.0052   31.2912  -24.3813 O   0  0  0  0  0  0  0  0  0  0  0  0
  -19.6600   32.2301  -25.3580 C   0  0  0  0  0  0  0  0  0  0  0  0
  -16.2096   30.4737  -22.3379 C   0  0  0  0  0  0  0  0  0  0  0  0
  -20.2401   31.9027  -26.6834 C   0  0  0  0  0  0  0  0  0  0  0  0
  -21.4933   32.1096  -26.7488 O   0  0  0  0  0  0  0  0  0  0  0  0
  -16.2902   29.1964  -21.9233 C   0  0  0  0  0  0  0  0  0  0  0  0
  -17.1596   28.6164  -21.2580 O   0  0  0  0  0  0  0  0  0  0  0  0
  -17.4308   34.6205  -24.3432 P   0  0  0  0  0  0  0  0  0  0  0  0
  -15.0261   30.7938  -23.0321 C   0  0  0  0  0  0  0  0  0  0  0  0
  -14.0316   29.9690  -23.3434 C   0  0  0  0  0  0  0  0  0  0  0  0
  -18.1331   35.4710  -25.0612 O   0  0  0  0  0  0  0  0  0  0  0  0
  -14.1384   28.7023  -22.9877 C   0  0  0  0  0  0  0  0  0  0  0  0
  -18.1541   32.5678  -25.5942 C   0  0  0  0  0  0  0  0  0  0  0  0
  -15.8427   34.6525  -24.7699 O   0  0  0  0  0  0  0  0  0  0  0  0
  -17.9492   33.3055  -24.4062 O   0  0  0  0  0  0  0  0  0  0  0  0
  -15.2266   28.2331  -22.2590 C   0  0  0  0  0  0  0  0  0  0  0  0
  1  2  1  0
  2  3  1  0
  3  4  1  0
  2  5  1  0
  4  6  1  0
  4  7  2  0
  4  8  1  0
  5  9  1  0
  9 10  2  3
  9 11  1  0
  2 12  2  0
 11 13  1  0
 13 14  1  0
 10 15  1  0
 14 16  1  0
 16 17  1  0
 15 18  1  0
 18 19  1  0
  8 20  1  0
 15 21  2  0
 21 22  1  0
 20 23  1  0
 22 24  2  0
 14 25  1  0
 20 26  2  0
 20 27  1  0
 25 27  1  0
 18 28  2  0
 24 28  1  0
M  END
