
     RDKit          3D

 28 29  0  0  0  0  0  0  0  0999 V2000
  -13.0392   27.2160  -22.0785 O   0  0  0  0  0  0  0  0  0  0  0  0
  -14.2372   27.4939  -21.9742 C   0  0  0  0  0  0  0  0  0  0  0  0
  -15.2141   27.0223  -21.4091 C   0  0  0  0  0  0  0  0  0  0  0  0
  -14.5690   28.7295  -22.9244 C   0  0  0  0  0  0  0  0  0  0  0  0
  -13.7714   29.7020  -23.1701 O   0  0  0  0  0  0  0  0  0  0  0  0
  -15.9129   29.0555  -23.0789 C   0  0  0  0  0  0  0  0  0  0  0  0
  -16.4929   27.4514  -21.7504 C   0  0  0  0  0  0  0  0  0  0  0  0
  -17.4799   26.6077  -21.0738 C   0  0  0  0  0  0  0  0  0  0  0  0
  -16.2160   30.2655  -23.8740 C   0  0  0  0  0  0  0  0  0  0  0  0
  -16.9023   28.4046  -22.4946 C   0  0  0  0  0  0  0  0  0  0  0  0
  -15.3666   31.1759  -23.8891 O   0  0  0  0  0  0  0  0  0  0  0  0
  -17.2135   30.3792  -24.7396 N   0  0  0  0  0  0  0  0  0  0  0  0
  -17.5476   31.5182  -25.2935 C   0  0  0  0  0  0  0  0  0  0  0  0
  -17.7645   32.6672  -24.5638 C   0  0  0  0  0  0  0  0  0  0  0  0
  -17.8977   31.4644  -26.6228 C   0  0  0  0  0  0  0  0  0  0  0  0
  -18.1778   33.8440  -25.2754 C   0  0  0  0  0  0  0  0  0  0  0  0
  -18.4725   33.7582  -26.6429 C   0  0  0  0  0  0  0  0  0  0  0  0
  -17.7530   30.1980  -27.3172 O   0  0  0  0  0  0  0  0  0  0  0  0
  -18.1959   35.1441  -24.5260 C   0  0  0  0  0  0  0  0  0  0  0  0
  -18.3576   32.5791  -27.4609 C   0  0  0  0  0  0  0  0  0  0  0  0
  -17.6541   35.1077  -23.3074 N   0  0  0  0  0  0  0  0  0  0  0  0
  -17.4688   36.1554  -25.3000 C   0  0  0  0  0  0  0  0  0  0  0  0
  -16.2202   36.0803  -25.4305 O   0  0  0  0  0  0  0  0  0  0  0  0
  -17.5426   36.3432  -22.5804 C   0  0  0  0  0  0  0  0  0  0  0  0
  -17.4901   37.4087  -22.8808 O   0  0  0  0  0  0  0  0  0  0  0  0
  -17.5174   36.0835  -21.0184 C   0  0  0  0  0  0  0  0  0  0  0  0
  -16.5432   36.6052  -20.4029 O   0  0  0  0  0  0  0  0  0  0  0  0
  -18.4258   35.3957  -20.3594 O   0  0  0  0  0  0  0  0  0  0  0  0
  1  2  1  0
  2  3  2  0
  2  4  1  0
  4  5  1  0
  4  6  2  0
  3  7  1  0
  7  8  1  0
  6  9  1  0
  6 10  1  0
  7 10  2  0
  9 11  2  0
  9 12  1  0
 12 13  1  0
 13 14  1  0
 13 15  2  0
 14 16  2  0
 16 17  1  0
 15 18  1  0
 16 19  1  0
 15 20  1  0
 17 20  2  0
 19 21  1  0
 19 22  1  0
 22 23  1  0
 21 24  1  0
 24 25  2  0
 24 26  1  0
 26 27  2  0
 26 28  1  0
M  END
