
     RDKit          3D

 28 28  0  0  0  0  0  0  0  0999 V2000
  -17.5652   35.9850  -19.5782 O   0  0  0  0  0  0  0  0  0  0  0  0
  -18.4445   35.8891  -20.5973 P   0  0  0  0  0  0  0  0  0  0  0  0
  -18.2254   36.7048  -21.6160 O   0  0  0  0  0  0  0  0  0  0  0  0
  -18.3438   34.3561  -21.1988 O   0  0  0  0  0  0  0  0  0  0  0  0
  -19.3482   33.2582  -21.1400 P   0  0  0  0  0  0  0  0  0  0  0  0
  -19.8768   36.0549  -20.1571 O   0  0  0  0  0  0  0  0  0  0  0  0
  -19.5150   32.5645  -19.9704 O   0  0  0  0  0  0  0  0  0  0  0  0
  -18.6634   32.1255  -22.1658 O   0  0  0  0  0  0  0  0  0  0  0  0
  -18.6650   32.0003  -23.5613 C   0  0  0  0  0  0  0  0  0  0  0  0
  -17.4949   31.1063  -23.9848 C   0  0  0  0  0  0  0  0  0  0  0  0
  -16.5042   30.9986  -23.0493 O   0  0  0  0  0  0  0  0  0  0  0  0
  -15.9877   29.5888  -22.4993 C   0  0  0  0  0  0  0  0  0  0  0  0
  -20.6454   33.5921  -21.8763 O   0  0  0  0  0  0  0  0  0  0  0  0
  -16.4265   28.6389  -22.6455 O   0  0  0  0  0  0  0  0  0  0  0  0
  -14.6860   29.8041  -22.0373 O   0  0  0  0  0  0  0  0  0  0  0  0
  -16.9202   37.5812  -22.0626 P   0  0  0  0  0  0  0  0  0  0  0  0
  -16.9318   31.8654  -25.1718 C   0  0  0  0  0  0  0  0  0  0  0  0
  -16.2447   36.7378  -23.1429 O   0  0  0  0  0  0  0  0  0  0  0  0
  -17.5740   32.2847  -26.0774 O   0  0  0  0  0  0  0  0  0  0  0  0
  -16.0430   33.1204  -24.4999 C   0  0  0  0  0  0  0  0  0  0  0  0
  -16.9819   34.2827  -24.6346 C   0  0  0  0  0  0  0  0  0  0  0  0
  -17.8466   33.7610  -25.9755 C   0  0  0  0  0  0  0  0  0  0  0  0
  -19.0288   34.1154  -26.2196 N   0  0  0  0  0  0  0  0  0  0  0  0
  -19.6361   35.2563  -25.7067 C   0  0  0  0  0  0  0  0  0  0  0  0
  -20.0292   33.2147  -26.8195 C   0  0  0  0  0  0  0  0  0  0  0  0
  -16.3479   35.4275  -25.0985 O   0  0  0  0  0  0  0  0  0  0  0  0
  -17.4333   38.8268  -22.8091 O   0  0  0  0  0  0  0  0  0  0  0  0
  -16.1946   37.6972  -20.8527 O   0  0  0  0  0  0  0  0  0  0  0  0
  1  2  1  0
  2  3  1  0
  2  4  1  0
  4  5  1  0
  2  6  2  0
  5  7  2  0
  5  8  1  0
  8  9  1  0
  9 10  1  0
 10 11  1  0
 11 12  1  0
  5 13  1  0
 12 14  2  0
 12 15  1  0
  3 16  1  0
 10 17  1  0
 16 18  1  0
 17 19  1  0
 17 20  1  0
 20 21  1  0
 19 22  1  0
 21 22  1  0
 22 23  1  0
 23 24  1  0
 23 25  1  0
 21 26  1  0
 16 27  2  0
 16 28  1  0
M  END
