
     RDKit          3D

 28 29  0  0  0  0  0  0  0  0999 V2000
  -16.3208   36.4791  -20.3630 O   0  0  0  0  0  0  0  0  0  0  0  0
  -17.6533   36.8110  -20.6212 P   0  0  0  0  0  0  0  0  0  0  0  0
  -18.0451   35.8662  -21.8615 O   0  0  0  0  0  0  0  0  0  0  0  0
  -17.7271   35.9597  -23.3426 P   0  0  0  0  0  0  0  0  0  0  0  0
  -18.0426   34.7049  -23.9737 O   0  0  0  0  0  0  0  0  0  0  0  0
  -16.1975   36.3002  -23.3274 O   0  0  0  0  0  0  0  0  0  0  0  0
  -18.4897   36.1575  -19.4052 O   0  0  0  0  0  0  0  0  0  0  0  0
  -17.2606   34.1270  -25.0309 C   0  0  0  0  0  0  0  0  0  0  0  0
  -18.6396   37.1640  -23.7382 O   0  0  0  0  0  0  0  0  0  0  0  0
  -17.9768   38.1461  -20.8895 O   0  0  0  0  0  0  0  0  0  0  0  0
  -17.8777   34.1711  -26.2974 C   0  0  0  0  0  0  0  0  0  0  0  0
  -17.4052   33.4572  -27.2651 C   0  0  0  0  0  0  0  0  0  0  0  0
  -19.3242   33.6723  -26.0937 O   0  0  0  0  0  0  0  0  0  0  0  0
  -16.8435   32.7192  -24.9805 C   0  0  0  0  0  0  0  0  0  0  0  0
  -19.7749   33.0396  -27.0835 C   0  0  0  0  0  0  0  0  0  0  0  0
  -19.6493   31.7114  -26.9485 O   0  0  0  0  0  0  0  0  0  0  0  0
  -16.6291   32.4958  -26.3502 C   0  0  0  0  0  0  0  0  0  0  0  0
  -20.3904   31.1909  -25.8838 C   0  0  0  0  0  0  0  0  0  0  0  0
  -17.7161   31.8367  -24.3257 N   0  0  0  0  0  0  0  0  0  0  0  0
  -19.1466   33.6380  -28.2843 C   0  0  0  0  0  0  0  0  0  0  0  0
  -16.2788   34.0831  -27.8120 O   0  0  0  0  0  0  0  0  0  0  0  0
  -17.3225   31.2864  -23.1253 C   0  0  0  0  0  0  0  0  0  0  0  0
  -16.0443   31.2716  -22.8522 N   0  0  0  0  0  0  0  0  0  0  0  0
  -17.9226   33.1147  -28.4086 O   0  0  0  0  0  0  0  0  0  0  0  0
  -15.3956   30.2453  -22.6994 C   0  0  0  0  0  0  0  0  0  0  0  0
  -18.1985   31.2302  -22.1425 O   0  0  0  0  0  0  0  0  0  0  0  0
  -16.0153   29.0505  -22.1119 C   0  0  0  0  0  0  0  0  0  0  0  0
  -15.1310   27.8433  -22.0043 O   0  0  0  0  0  0  0  0  0  0  0  0
  1  2  1  0
  2  3  1  0
  3  4  1  0
  4  5  1  0
  4  6  2  0
  2  7  1  0
  5  8  1  0
  4  9  1  0
  2 10  2  0
  8 11  1  0
 11 12  1  0
 11 13  1  0
  8 14  1  0
 13 15  1  0
 15 16  1  0
 12 17  1  0
 14 17  1  0
 16 18  1  0
 14 19  1  0
 15 20  1  0
 12 21  1  0
 19 22  1  0
 22 23  1  0
 12 24  1  0
 20 24  1  0
 23 25  1  0
 22 26  2  0
 25 27  1  0
 27 28  1  0
M  END
