
     RDKit          3D

 16 16  0  0  0  0  0  0  0  0999 V2000
  -13.8270   27.2793  -22.5350 O   0  0  0  0  0  0  0  0  0  0  0  0
  -14.7754   27.3195  -21.6751 C   0  0  0  0  0  0  0  0  0  0  0  0
  -15.1888   26.5924  -20.9189 O   0  0  0  0  0  0  0  0  0  0  0  0
  -15.8461   28.4903  -22.0690 C   0  0  0  0  0  0  0  0  0  0  0  0
  -15.2405   29.7986  -22.4544 C   0  0  0  0  0  0  0  0  0  0  0  0
  -14.1528   29.9970  -22.7299 O   0  0  0  0  0  0  0  0  0  0  0  0
  -16.3090   30.7680  -22.7921 N   0  0  0  0  0  0  0  0  0  0  0  0
  -17.7338   30.7086  -22.3816 C   0  0  0  0  0  0  0  0  0  0  0  0
  -15.8766   31.9231  -23.5790 C   0  0  0  0  0  0  0  0  0  0  0  0
  -15.4348   31.6605  -24.9027 O   0  0  0  0  0  0  0  0  0  0  0  0
  -16.8406   33.0108  -23.7794 C   0  0  0  0  0  0  0  0  0  0  0  0
  -16.3890   34.1584  -24.4672 C   0  0  0  0  0  0  0  0  0  0  0  0
  -18.1601   32.6703  -24.1203 O   0  0  0  0  0  0  0  0  0  0  0  0
  -18.6463   31.4142  -23.5594 C   0  0  0  0  0  0  0  0  0  0  0  0
  -17.2293   35.1295  -24.7745 O   0  0  0  0  0  0  0  0  0  0  0  0
  -17.2645   35.7558  -26.0231 C   0  0  0  0  0  0  0  0  0  0  0  0
  1  2  2  0
  2  3  1  0
  2  4  1  0
  4  5  1  0
  5  6  2  0
  5  7  1  0
  7  8  1  0
  7  9  1  0
  9 10  1  0
  9 11  1  0
 11 12  1  0
 11 13  1  0
  8 14  1  0
 13 14  1  0
 12 15  1  0
 15 16  1  0
M  END
