
     RDKit          3D

 16 15  0  0  0  0  0  0  0  0999 V2000
  -16.6051   36.0222  -19.5733 O   0  0  0  0  0  0  0  0  0  0  0  0
  -17.4866   36.5328  -20.5089 P   0  0  0  0  0  0  0  0  0  0  0  0
  -17.8698   35.4947  -21.4983 O   0  0  0  0  0  0  0  0  0  0  0  0
  -16.6253   37.5809  -21.3290 O   0  0  0  0  0  0  0  0  0  0  0  0
  -18.6512   37.3603  -19.9715 O   0  0  0  0  0  0  0  0  0  0  0  0
  -18.9168   34.3766  -21.0015 P   0  0  0  0  0  0  0  0  0  0  0  0
  -18.9505   33.3078  -21.9983 O   0  0  0  0  0  0  0  0  0  0  0  0
  -18.9378   31.9199  -21.9105 C   0  0  0  0  0  0  0  0  0  0  0  0
  -20.2980   34.8781  -20.7404 O   0  0  0  0  0  0  0  0  0  0  0  0
  -18.1054   33.6492  -19.7977 O   0  0  0  0  0  0  0  0  0  0  0  0
  -18.4480   31.1437  -22.9697 C   0  0  0  0  0  0  0  0  0  0  0  0
  -19.4442   31.3408  -20.8461 O   0  0  0  0  0  0  0  0  0  0  0  0
  -16.9683   30.8209  -22.8747 N   0  0  0  0  0  0  0  0  0  0  0  0
  -16.4595   30.1691  -22.1038 C   0  0  0  0  0  0  0  0  0  0  0  0
  -15.0433   29.8833  -22.2408 O   0  0  0  0  0  0  0  0  0  0  0  0
  -16.8755   29.5824  -20.9886 N   0  0  0  0  0  0  0  0  0  0  0  0
  1  2  1  0
  2  3  1  0
  2  4  2  0
  2  5  1  0
  3  6  1  0
  6  7  1  0
  7  8  1  0
  6  9  2  0
  6 10  1  0
  8 11  1  0
  8 12  2  0
 11 13  1  0
 13 14  1  0
 14 15  2  0
 14 16  1  0
M  END
