
     RDKit          3D

 17 17  0  0  0  0  0  0  0  0999 V2000
  -14.3944   27.4003  -22.5807 O   0  0  0  0  0  0  0  0  0  0  0  0
  -15.4790   27.8942  -21.9156 C   0  0  0  0  0  0  0  0  0  0  0  0
  -16.4218   27.3368  -21.5436 O   0  0  0  0  0  0  0  0  0  0  0  0
  -15.4447   29.3966  -21.7028 C   0  0  0  0  0  0  0  0  0  0  0  0
  -16.6027   30.0513  -21.9533 C   0  0  0  0  0  0  0  0  0  0  0  0
  -16.5033   31.2523  -22.6825 N   0  0  0  0  0  0  0  0  0  0  0  0
  -15.6042   31.3592  -23.7863 C   0  0  0  0  0  0  0  0  0  0  0  0
  -15.7331   32.5560  -24.5097 C   0  0  0  0  0  0  0  0  0  0  0  0
  -17.8610   31.6677  -23.2540 C   0  0  0  0  0  0  0  0  0  0  0  0
  -18.7986   31.5956  -22.1716 O   0  0  0  0  0  0  0  0  0  0  0  0
  -16.9721   33.0090  -24.7891 C   0  0  0  0  0  0  0  0  0  0  0  0
  -17.4596   32.5994  -25.9762 O   0  0  0  0  0  0  0  0  0  0  0  0
  -19.2049   32.7056  -21.2870 P   0  0  0  0  0  0  0  0  0  0  0  0
  -19.1867   34.1011  -21.8164 O   0  0  0  0  0  0  0  0  0  0  0  0
  -17.8864   32.7740  -23.6671 C   0  0  0  0  0  0  0  0  0  0  0  0
  -18.2634   32.3920  -20.1026 O   0  0  0  0  0  0  0  0  0  0  0  0
  -20.6666   32.2978  -20.8381 O   0  0  0  0  0  0  0  0  0  0  0  0
  1  2  2  0
  2  3  1  0
  2  4  1  0
  4  5  1  0
  5  6  1  0
  6  7  1  0
  7  8  1  0
  6  9  1  0
  9 10  1  0
  8 11  1  0
 11 12  1  0
 10 13  1  0
 13 14  1  0
  9 15  1  0
 11 15  1  0
 13 16  1  0
 13 17  2  0
M  END
