
     RDKit          3D

 17 16  0  0  0  0  0  0  0  0999 V2000
  -16.6579   36.2371  -19.6971 O   0  0  0  0  0  0  0  0  0  0  0  0
  -17.5636   36.6061  -20.6173 P   0  0  0  0  0  0  0  0  0  0  0  0
  -17.7952   35.4315  -21.5659 O   0  0  0  0  0  0  0  0  0  0  0  0
  -17.8737   35.2800  -22.9871 P   0  0  0  0  0  0  0  0  0  0  0  0
  -18.6590   36.1574  -23.5731 O   0  0  0  0  0  0  0  0  0  0  0  0
  -18.5354   33.8524  -23.2073 O   0  0  0  0  0  0  0  0  0  0  0  0
  -18.9439   36.9400  -19.9686 O   0  0  0  0  0  0  0  0  0  0  0  0
  -16.9819   37.7524  -21.2341 O   0  0  0  0  0  0  0  0  0  0  0  0
  -16.4906   35.3222  -23.6518 O   0  0  0  0  0  0  0  0  0  0  0  0
  -18.7525   32.8706  -22.1230 C   0  0  0  0  0  0  0  0  0  0  0  0
  -18.4337   31.6048  -22.3895 C   0  0  0  0  0  0  0  0  0  0  0  0
  -17.1633   31.2616  -22.3225 O   0  0  0  0  0  0  0  0  0  0  0  0
  -16.5698   30.1169  -22.9339 C   0  0  0  0  0  0  0  0  0  0  0  0
  -15.5860   29.4747  -22.1788 C   0  0  0  0  0  0  0  0  0  0  0  0
  -20.0203   33.1288  -21.3724 C   0  0  0  0  0  0  0  0  0  0  0  0
  -20.1247   33.7859  -20.1955 O   0  0  0  0  0  0  0  0  0  0  0  0
  -16.0396   28.5327  -21.3429 O   0  0  0  0  0  0  0  0  0  0  0  0
  1  2  1  0
  2  3  1  0
  3  4  1  0
  4  5  1  0
  4  6  1  0
  2  7  1  0
  2  8  2  0
  4  9  2  0
  6 10  1  0
 10 11  1  0
 11 12  1  0
 12 13  1  0
 13 14  1  0
 10 15  1  0
 15 16  1  0
 14 17  1  0
M  END
