
     RDKit          3D

 17 17  0  0  0  0  0  0  0  0999 V2000
  -20.2273   31.0691  -20.7627 O   0  0  0  0  0  0  0  0  0  0  0  0
  -19.2738   32.0006  -20.9722 P   0  0  0  0  0  0  0  0  0  0  0  0
  -19.5921   33.1842  -20.3618 O   0  0  0  0  0  0  0  0  0  0  0  0
  -19.1658   32.3572  -22.5662 O   0  0  0  0  0  0  0  0  0  0  0  0
  -18.4163   31.3835  -23.5035 C   0  0  0  0  0  0  0  0  0  0  0  0
  -17.1938   31.8855  -24.0256 C   0  0  0  0  0  0  0  0  0  0  0  0
  -18.0883   31.6254  -20.5208 O   0  0  0  0  0  0  0  0  0  0  0  0
  -17.3995   32.9368  -24.8236 N   0  0  0  0  0  0  0  0  0  0  0  0
  -16.7743   34.1812  -24.7952 C   0  0  0  0  0  0  0  0  0  0  0  0
  -18.7093   33.1364  -25.5208 C   0  0  0  0  0  0  0  0  0  0  0  0
  -18.5865   32.7728  -26.8806 C   0  0  0  0  0  0  0  0  0  0  0  0
  -19.0700   34.5864  -25.4125 C   0  0  0  0  0  0  0  0  0  0  0  0
  -15.8821   34.4124  -23.9398 O   0  0  0  0  0  0  0  0  0  0  0  0
  -19.7650   32.5467  -27.5973 O   0  0  0  0  0  0  0  0  0  0  0  0
  -17.6378   33.4253  -27.6754 C   0  0  0  0  0  0  0  0  0  0  0  0
  -17.7120   35.2331  -25.2795 C   0  0  0  0  0  0  0  0  0  0  0  0
  -20.5456   31.5236  -27.5305 C   0  0  0  0  0  0  0  0  0  0  0  0
  1  2  1  0
  2  3  1  0
  2  4  1  0
  4  5  1  0
  5  6  1  0
  2  7  2  0
  6  8  1  0
  8  9  1  0
  8 10  1  0
 10 11  1  0
 10 12  1  0
  9 13  2  0
 11 14  1  0
 11 15  1  0
  9 16  1  0
 12 16  1  0
 14 17  1  0
M  END
