
     RDKit          3D

 17 16  0  0  0  0  0  0  0  0999 V2000
  -21.3302   34.3530  -20.9865 O   0  0  0  0  0  0  0  0  0  0  0  0
  -19.9010   33.9734  -20.9391 P   0  0  0  0  0  0  0  0  0  0  0  0
  -19.2753   33.4194  -22.1837 O   0  0  0  0  0  0  0  0  0  0  0  0
  -18.7100   35.0903  -20.8929 O   0  0  0  0  0  0  0  0  0  0  0  0
  -19.6807   33.1216  -19.6207 O   0  0  0  0  0  0  0  0  0  0  0  0
  -18.3506   36.3501  -20.1369 P   0  0  0  0  0  0  0  0  0  0  0  0
  -17.0506   36.8440  -20.7271 O   0  0  0  0  0  0  0  0  0  0  0  0
  -19.3721   37.4083  -20.5630 O   0  0  0  0  0  0  0  0  0  0  0  0
  -18.5217   32.0573  -22.3483 P   0  0  0  0  0  0  0  0  0  0  0  0
  -18.1209   36.2085  -18.7026 O   0  0  0  0  0  0  0  0  0  0  0  0
  -17.1831   32.1151  -22.3113 O   0  0  0  0  0  0  0  0  0  0  0  0
  -18.9941   31.2588  -23.6166 O   0  0  0  0  0  0  0  0  0  0  0  0
  -19.1083   31.0040  -21.2880 O   0  0  0  0  0  0  0  0  0  0  0  0
  -16.1596   31.1486  -22.7424 C   0  0  0  0  0  0  0  0  0  0  0  0
  -15.8449   30.1054  -21.8818 C   0  0  0  0  0  0  0  0  0  0  0  0
  -15.6980   28.8044  -22.3381 C   0  0  0  0  0  0  0  0  0  0  0  0
  -15.1414   27.9539  -21.8329 O   0  0  0  0  0  0  0  0  0  0  0  0
  1  2  2  0
  2  3  1  0
  2  4  1  0
  2  5  1  0
  4  6  1  0
  6  7  2  0
  6  8  1  0
  3  9  1  0
  6 10  1  0
  9 11  1  0
  9 12  2  0
  9 13  1  0
 11 14  1  0
 14 15  1  0
 15 16  1  0
 16 17  2  0
M  END
