
     RDKit          3D

  5  4  0  0  0  0  0  0  0  0999 V2000
  -13.3345   34.6331  -33.9131 C   0  0  0  0  0  0  0  0  0  0  0  0
  -13.2122   33.5559  -33.3667 O   0  0  0  0  0  0  0  0  0  0  0  0
  -13.5984   33.4908  -32.0004 C   0  0  0  0  0  0  0  0  0  0  0  0
  -12.5105   33.4552  -31.1520 C   0  0  0  0  0  0  0  0  0  0  0  0
  -11.6275   34.5701  -31.1961 O   0  0  0  0  0  0  0  0  0  0  0  0
  1  2  1  0
  2  3  1  0
  3  4  1  0
  4  5  1  0
M  END
