
     RDKit          3D

 17 17  0  0  0  0  0  0  0  0999 V2000
  -20.8478   33.4248  -20.3065 O   0  0  0  0  0  0  0  0  0  0  0  0
  -19.4409   33.1702  -20.6718 P   0  0  0  0  0  0  0  0  0  0  0  0
  -18.8028   34.3226  -20.8283 O   0  0  0  0  0  0  0  0  0  0  0  0
  -18.9379   32.0517  -19.8356 O   0  0  0  0  0  0  0  0  0  0  0  0
  -19.1917   35.9962  -21.1701 P   0  0  0  0  0  0  0  0  0  0  0  0
  -19.6224   32.5431  -22.1942 O   0  0  0  0  0  0  0  0  0  0  0  0
  -18.5407   32.5784  -23.2245 C   0  0  0  0  0  0  0  0  0  0  0  0
  -18.1960   31.4571  -23.8609 C   0  0  0  0  0  0  0  0  0  0  0  0
  -17.1436   30.7526  -23.2686 C   0  0  0  0  0  0  0  0  0  0  0  0
  -15.7675   31.1665  -23.2836 C   0  0  0  0  0  0  0  0  0  0  0  0
  -17.3639   29.8178  -22.1677 C   0  0  0  0  0  0  0  0  0  0  0  0
  -14.7438   30.4470  -22.7355 C   0  0  0  0  0  0  0  0  0  0  0  0
  -16.3968   29.0886  -21.6165 C   0  0  0  0  0  0  0  0  0  0  0  0
  -15.0647   29.3996  -21.9234 N   0  0  0  0  0  0  0  0  0  0  0  0
  -17.9211   36.6723  -21.1705 O   0  0  0  0  0  0  0  0  0  0  0  0
  -19.8629   35.8553  -22.4601 O   0  0  0  0  0  0  0  0  0  0  0  0
  -20.0324   36.4069  -20.0207 O   0  0  0  0  0  0  0  0  0  0  0  0
  1  2  1  0
  2  3  1  0
  2  4  2  0
  3  5  1  0
  2  6  1  0
  6  7  1  0
  7  8  1  0
  8  9  1  0
  9 10  2  0
  9 11  1  0
 10 12  1  0
 11 13  2  0
 12 14  2  0
 13 14  1  0
  5 15  1  0
  5 16  2  0
  5 17  1  0
M  END
