
     RDKit          3D

 18 18  0  0  0  0  0  0  0  0999 V2000
  -20.8478   33.4248  -20.3065 O   0  0  0  0  0  0  0  0  0  0  0  0
  -19.4409   33.1702  -20.6718 P   0  0  0  0  0  0  0  0  0  0  0  0
  -19.3960   32.6076  -22.0238 O   0  0  0  0  0  0  0  0  0  0  0  0
  -18.7211   34.5144  -20.6261 O   0  0  0  0  0  0  0  0  0  0  0  0
  -18.8798   31.2234  -22.1817 C   0  0  0  0  0  0  0  0  0  0  0  0
  -18.9321   32.2210  -19.6647 O   0  0  0  0  0  0  0  0  0  0  0  0
  -17.5302   31.1546  -22.7976 C   0  0  0  0  0  0  0  0  0  0  0  0
  -16.8117   30.1508  -22.4157 N   0  0  0  0  0  0  0  0  0  0  0  0
  -17.2299   31.8879  -23.7853 N   0  0  0  0  0  0  0  0  0  0  0  0
  -19.1156   35.9882  -20.9808 P   0  0  0  0  0  0  0  0  0  0  0  0
  -15.6331   30.2276  -22.9678 C   0  0  0  0  0  0  0  0  0  0  0  0
  -17.7283   36.6117  -21.0611 O   0  0  0  0  0  0  0  0  0  0  0  0
  -17.0485   28.9939  -21.5060 C   0  0  0  0  0  0  0  0  0  0  0  0
  -15.8699   31.3898  -23.9176 N   0  0  0  0  0  0  0  0  0  0  0  0
  -14.6514   29.6395  -22.7915 O   0  0  0  0  0  0  0  0  0  0  0  0
  -20.0038   36.5962  -20.0938 O   0  0  0  0  0  0  0  0  0  0  0  0
  -14.9298   32.2223  -24.5528 C   0  0  0  0  0  0  0  0  0  0  0  0
  -19.6183   35.9217  -22.4254 O   0  0  0  0  0  0  0  0  0  0  0  0
  1  2  1  0
  2  3  1  0
  2  4  1  0
  3  5  1  0
  2  6  2  0
  5  7  1  0
  7  8  1  0
  7  9  2  0
  4 10  1  0
  8 11  1  0
 10 12  2  0
  8 13  1  0
  9 14  1  0
 11 14  1  0
 11 15  2  0
 10 16  1  0
 14 17  1  0
 10 18  1  0
M  END
