
     RDKit          3D

 19 19  0  0  0  0  0  0  0  0999 V2000
  -16.3208   36.4791  -20.3630 O   0  0  0  0  0  0  0  0  0  0  0  0
  -17.4823   36.9298  -21.1315 P   0  0  0  0  0  0  0  0  0  0  0  0
  -17.7405   35.9551  -22.2498 O   0  0  0  0  0  0  0  0  0  0  0  0
  -18.7010   34.8204  -22.3846 P   0  0  0  0  0  0  0  0  0  0  0  0
  -18.0958   33.6590  -22.8259 O   0  0  0  0  0  0  0  0  0  0  0  0
  -18.4994   31.9714  -22.5959 P   0  0  0  0  0  0  0  0  0  0  0  0
  -18.6301   36.9369  -20.1201 O   0  0  0  0  0  0  0  0  0  0  0  0
  -19.8625   35.3254  -23.2835 O   0  0  0  0  0  0  0  0  0  0  0  0
  -19.0669   34.4100  -20.8256 O   0  0  0  0  0  0  0  0  0  0  0  0
  -17.2818   38.3063  -21.6851 O   0  0  0  0  0  0  0  0  0  0  0  0
  -20.0750   33.3937  -20.3563 P   0  0  0  0  0  0  0  0  0  0  0  0
  -19.8818   32.8791  -19.0726 O   0  0  0  0  0  0  0  0  0  0  0  0
  -19.5513   32.1301  -21.4000 O   0  0  0  0  0  0  0  0  0  0  0  0
  -19.1575   31.5290  -23.8407 O   0  0  0  0  0  0  0  0  0  0  0  0
  -21.3592   33.6191  -21.0247 O   0  0  0  0  0  0  0  0  0  0  0  0
  -17.2650   31.3111  -22.2619 O   0  0  0  0  0  0  0  0  0  0  0  0
  -16.6088   30.3169  -23.0274 C   0  0  0  0  0  0  0  0  0  0  0  0
  -16.0852   29.2664  -22.1081 C   0  0  0  0  0  0  0  0  0  0  0  0
  -14.9935   28.6160  -22.5507 O   0  0  0  0  0  0  0  0  0  0  0  0
  1  2  1  0
  2  3  1  0
  3  4  1  0
  4  5  1  0
  5  6  1  0
  2  7  1  0
  4  8  2  0
  4  9  1  0
  2 10  2  0
  9 11  1  0
 11 12  2  0
  6 13  1  0
 11 13  1  0
  6 14  2  0
 11 15  1  0
  6 16  1  0
 16 17  1  0
 17 18  1  0
 18 19  2  0
M  END
