
     RDKit          3D

 19 20  0  0  0  0  0  0  0  0999 V2000
  -17.5652   35.9850  -19.5782 O   0  0  0  0  0  0  0  0  0  0  0  0
  -17.7569   36.4783  -20.8179 P   0  0  0  0  0  0  0  0  0  0  0  0
  -18.7451   37.4142  -20.8887 O   0  0  0  0  0  0  0  0  0  0  0  0
  -18.1650   35.3594  -21.9421 O   0  0  0  0  0  0  0  0  0  0  0  0
  -16.3731   37.0146  -21.3492 O   0  0  0  0  0  0  0  0  0  0  0  0
  -18.0699   35.4413  -23.4330 P   0  0  0  0  0  0  0  0  0  0  0  0
  -16.6691   35.5114  -23.6768 O   0  0  0  0  0  0  0  0  0  0  0  0
  -18.7456   36.5712  -24.0695 O   0  0  0  0  0  0  0  0  0  0  0  0
  -15.8881   34.5757  -24.6001 C   0  0  0  0  0  0  0  0  0  0  0  0
  -15.2825   35.0968  -25.5772 C   0  0  0  0  0  0  0  0  0  0  0  0
  -15.8227   35.1679  -26.9387 C   0  0  0  0  0  0  0  0  0  0  0  0
  -16.8185   34.3049  -27.2500 C   0  0  0  0  0  0  0  0  0  0  0  0
  -18.6692   34.0760  -23.8720 O   0  0  0  0  0  0  0  0  0  0  0  0
  -17.7240   33.7695  -26.3202 C   0  0  0  0  0  0  0  0  0  0  0  0
  -18.8260   33.0239  -26.7190 C   0  0  0  0  0  0  0  0  0  0  0  0
  -19.2666   33.0068  -27.8429 O   0  0  0  0  0  0  0  0  0  0  0  0
  -17.5505   33.7943  -24.8474 C   0  0  0  0  0  0  0  0  0  0  0  0
  -19.6656   32.3699  -25.7990 N   0  0  0  0  0  0  0  0  0  0  0  0
  -20.5846   31.2902  -26.2835 C   0  0  0  0  0  0  0  0  0  0  0  0
  1  2  1  0
  2  3  2  0
  2  4  1  0
  2  5  1  0
  4  6  1  0
  6  7  1  0
  6  8  2  0
  7  9  1  0
  9 10  2  0
 10 11  1  0
 11 12  2  0
  6 13  1  0
 12 14  1  0
 14 15  1  0
 15 16  2  0
  9 17  1  0
 13 17  1  0
 14 17  2  0
 15 18  1  0
 18 19  1  0
M  END
