
     RDKit          3D

 20 19  0  0  0  0  0  0  0  0999 V2000
  -16.3208   36.4791  -20.3630 O   0  0  0  0  0  0  0  0  0  0  0  0
  -17.6533   36.8110  -20.6212 P   0  0  0  0  0  0  0  0  0  0  0  0
  -18.0451   35.8662  -21.8615 O   0  0  0  0  0  0  0  0  0  0  0  0
  -19.1684   35.0215  -22.0389 C   0  0  0  0  0  0  0  0  0  0  0  0
  -18.6370   36.6167  -19.6083 O   0  0  0  0  0  0  0  0  0  0  0  0
  -17.6677   38.2682  -20.9581 O   0  0  0  0  0  0  0  0  0  0  0  0
  -18.8238   33.6426  -22.2340 C   0  0  0  0  0  0  0  0  0  0  0  0
  -19.2934   32.7278  -21.0961 C   0  0  0  0  0  0  0  0  0  0  0  0
  -18.2046   33.1449  -23.2992 O   0  0  0  0  0  0  0  0  0  0  0  0
  -19.5671   33.0040  -19.9949 O   0  0  0  0  0  0  0  0  0  0  0  0
  -19.6403   31.5541  -21.5380 O   0  0  0  0  0  0  0  0  0  0  0  0
  -17.6947   32.0127  -23.6647 C   0  0  0  0  0  0  0  0  0  0  0  0
  -16.5564   32.1097  -24.4471 C   0  0  0  0  0  0  0  0  0  0  0  0
  -16.3122   33.3735  -25.0567 N   0  0  0  0  0  0  0  0  0  0  0  0
  -16.6938   33.7205  -26.4026 C   0  0  0  0  0  0  0  0  0  0  0  0
  -16.4764   35.0740  -26.8126 C   0  0  0  0  0  0  0  0  0  0  0  0
  -17.1260   32.8324  -27.2005 O   0  0  0  0  0  0  0  0  0  0  0  0
  -16.2827   35.9397  -25.8203 F   0  0  0  0  0  0  0  0  0  0  0  0
  -17.6166   35.5455  -27.5016 F   0  0  0  0  0  0  0  0  0  0  0  0
  -15.4145   35.1651  -27.6308 F   0  0  0  0  0  0  0  0  0  0  0  0
  1  2  1  0
  2  3  1  0
  3  4  1  0
  2  5  1  0
  2  6  2  0
  4  7  1  0
  7  8  1  0
  7  9  1  0
  8 10  2  0
  8 11  1  0
  9 12  1  0
 12 13  1  0
 13 14  1  0
 14 15  1  0
 15 16  1  0
 15 17  2  0
 16 18  1  0
 16 19  1  0
 16 20  1  0
M  END
