
     RDKit          3D

 20 21  0  0  0  0  0  0  0  0999 V2000
  -13.6711   27.1792  -22.1409 O   0  0  0  0  0  0  0  0  0  0  0  0
  -14.9311   27.5422  -22.0185 C   0  0  0  0  0  0  0  0  0  0  0  0
  -15.2310   28.9226  -22.4478 C   0  0  0  0  0  0  0  0  0  0  0  0
  -16.5397   29.4250  -22.2272 C   0  0  0  0  0  0  0  0  0  0  0  0
  -14.3816   29.9806  -22.8182 C   0  0  0  0  0  0  0  0  0  0  0  0
  -15.9220   26.8933  -21.9564 N   0  0  0  0  0  0  0  0  0  0  0  0
  -17.5467   28.5928  -21.9433 O   0  0  0  0  0  0  0  0  0  0  0  0
  -17.0196   30.7406  -22.5715 C   0  0  0  0  0  0  0  0  0  0  0  0
  -17.2220   27.2475  -21.9180 C   0  0  0  0  0  0  0  0  0  0  0  0
  -13.0847   29.6556  -23.0253 N   0  0  0  0  0  0  0  0  0  0  0  0
  -17.8839   26.4119  -22.7965 C   0  0  0  0  0  0  0  0  0  0  0  0
  -14.7897   31.2415  -23.1054 C   0  0  0  0  0  0  0  0  0  0  0  0
  -18.4276   31.0741  -22.3669 C   0  0  0  0  0  0  0  0  0  0  0  0
  -18.5638   32.2142  -21.7874 O   0  0  0  0  0  0  0  0  0  0  0  0
  -13.7908   32.1890  -23.6068 C   0  0  0  0  0  0  0  0  0  0  0  0
  -16.1106   31.5990  -22.9568 C   0  0  0  0  0  0  0  0  0  0  0  0
  -19.5919   32.6751  -20.6958 P   0  0  0  0  0  0  0  0  0  0  0  0
  -20.6365   33.2296  -21.2703 O   0  0  0  0  0  0  0  0  0  0  0  0
  -18.6674   33.6914  -20.0118 O   0  0  0  0  0  0  0  0  0  0  0  0
  -19.8376   31.5802  -19.7626 O   0  0  0  0  0  0  0  0  0  0  0  0
  1  2  2  0
  2  3  1  0
  3  4  2  0
  3  5  1  0
  2  6  1  0
  4  7  1  0
  4  8  1  0
  6  9  1  0
  7  9  1  0
  5 10  1  0
  9 11  1  0
  5 12  2  0
  8 13  1  0
 13 14  1  0
 12 15  1  0
  8 16  2  0
 12 16  1  0
 14 17  1  0
 17 18  2  0
 17 19  1  0
 17 20  1  0
M  END
