
     RDKit          3D

 20 20  0  0  0  0  0  0  0  0999 V2000
  -20.8284   33.5030  -20.5234 O   0  0  0  0  0  0  0  0  0  0  0  0
  -19.4119   33.1716  -20.7526 P   0  0  0  0  0  0  0  0  0  0  0  0
  -18.7647   34.2768  -20.8296 O   0  0  0  0  0  0  0  0  0  0  0  0
  -18.2085   35.3187  -21.8300 P   0  0  0  0  0  0  0  0  0  0  0  0
  -19.3353   32.2161  -21.9313 O   0  0  0  0  0  0  0  0  0  0  0  0
  -17.5443   36.4686  -21.0970 O   0  0  0  0  0  0  0  0  0  0  0  0
  -19.3964   35.6870  -22.6098 O   0  0  0  0  0  0  0  0  0  0  0  0
  -17.2013   34.7232  -22.8116 O   0  0  0  0  0  0  0  0  0  0  0  0
  -18.4414   31.4240  -22.4132 C   0  0  0  0  0  0  0  0  0  0  0  0
  -18.6347   30.7275  -23.4968 C   0  0  0  0  0  0  0  0  0  0  0  0
  -19.0173   32.2155  -19.6065 O   0  0  0  0  0  0  0  0  0  0  0  0
  -16.3610   35.5745  -23.9208 P   0  0  0  0  0  0  0  0  0  0  0  0
  -17.7036   31.0503  -24.6017 O   0  0  0  0  0  0  0  0  0  0  0  0
  -15.9911   34.5210  -24.9338 O   0  0  0  0  0  0  0  0  0  0  0  0
  -15.2882   36.2497  -23.4791 O   0  0  0  0  0  0  0  0  0  0  0  0
  -18.0288   32.3129  -25.2590 C   0  0  0  0  0  0  0  0  0  0  0  0
  -17.6356   36.1761  -24.7385 O   0  0  0  0  0  0  0  0  0  0  0  0
  -16.7799   33.4012  -25.5150 C   0  0  0  0  0  0  0  0  0  0  0  0
  -19.0098   33.1071  -24.5390 O   0  0  0  0  0  0  0  0  0  0  0  0
  -18.7336   29.4932  -23.0975 O   0  0  0  0  0  0  0  0  0  0  0  0
  1  2  1  0
  2  3  1  0
  3  4  1  0
  2  5  1  0
  4  6  1  0
  4  7  2  0
  4  8  1  0
  5  9  1  0
  9 10  1  0
  2 11  2  0
  8 12  1  0
 10 13  1  0
 12 14  1  0
 12 15  1  0
 13 16  1  0
 12 17  2  0
 14 18  1  0
 16 18  1  0
 16 19  1  0
 10 20  1  0
M  END
