
     RDKit          3D

 20 19  0  0  0  0  0  0  0  0999 V2000
  -20.2273   31.0691  -20.7627 O   0  0  0  0  0  0  0  0  0  0  0  0
  -19.2738   32.0006  -20.9722 P   0  0  0  0  0  0  0  0  0  0  0  0
  -19.5921   33.1842  -20.3618 O   0  0  0  0  0  0  0  0  0  0  0  0
  -19.1658   32.3572  -22.5662 O   0  0  0  0  0  0  0  0  0  0  0  0
  -18.4163   31.3835  -23.5035 C   0  0  0  0  0  0  0  0  0  0  0  0
  -16.9832   31.5068  -23.5605 C   0  0  0  0  0  0  0  0  0  0  0  0
  -18.1005   31.4772  -20.5831 O   0  0  0  0  0  0  0  0  0  0  0  0
  -16.1688   30.5429  -23.1744 O   0  0  0  0  0  0  0  0  0  0  0  0
  -16.4823   29.5047  -22.0999 C   0  0  0  0  0  0  0  0  0  0  0  0
  -16.3587   32.6142  -24.1658 C   0  0  0  0  0  0  0  0  0  0  0  0
  -17.1154   33.9176  -24.5725 C   0  0  0  0  0  0  0  0  0  0  0  0
  -16.7868   35.0321  -24.0304 N   0  0  0  0  0  0  0  0  0  0  0  0
  -14.9705   32.6379  -24.1636 O   0  0  0  0  0  0  0  0  0  0  0  0
  -17.1321   33.9590  -26.0262 C   0  0  0  0  0  0  0  0  0  0  0  0
  -16.7571   35.1435  -26.6518 C   0  0  0  0  0  0  0  0  0  0  0  0
  -15.5386   28.4860  -22.1353 C   0  0  0  0  0  0  0  0  0  0  0  0
  -18.3413   33.5177  -26.7434 C   0  0  0  0  0  0  0  0  0  0  0  0
  -15.9379   35.1032  -27.7575 O   0  0  0  0  0  0  0  0  0  0  0  0
  -15.5570   27.3723  -21.4805 O   0  0  0  0  0  0  0  0  0  0  0  0
  -14.6065   28.6213  -23.0159 O   0  0  0  0  0  0  0  0  0  0  0  0
  1  2  1  0
  2  3  1  0
  2  4  1  0
  4  5  1  0
  5  6  1  0
  2  7  2  0
  6  8  1  0
  8  9  1  0
  6 10  2  3
 10 11  1  0
 11 12  1  0
 10 13  1  0
 11 14  1  0
 14 15  1  0
  9 16  1  0
 14 17  1  0
 15 18  1  0
 16 19  1  0
 16 20  2  0
M  END
