
     RDKit          3D

 20 20  0  0  0  0  0  0  0  0999 V2000
  -13.8078   27.5966  -22.5660 O   0  0  0  0  0  0  0  0  0  0  0  0
  -15.0881   28.0057  -22.2023 C   0  0  0  0  0  0  0  0  0  0  0  0
  -15.4252   29.3370  -22.3056 C   0  0  0  0  0  0  0  0  0  0  0  0
  -15.9552   27.1892  -21.7760 O   0  0  0  0  0  0  0  0  0  0  0  0
  -16.7923   29.7873  -22.2102 C   0  0  0  0  0  0  0  0  0  0  0  0
  -17.1678   31.1487  -22.5579 C   0  0  0  0  0  0  0  0  0  0  0  0
  -16.6384   31.7458  -23.5924 C   0  0  0  0  0  0  0  0  0  0  0  0
  -17.1727   32.9231  -24.1480 C   0  0  0  0  0  0  0  0  0  0  0  0
  -18.6277   31.1507  -22.8698 C   0  0  0  0  0  0  0  0  0  0  0  0
  -19.3548   31.6097  -21.7726 O   0  0  0  0  0  0  0  0  0  0  0  0
  -18.4742   33.0678  -24.1509 O   0  0  0  0  0  0  0  0  0  0  0  0
  -16.4637   33.2299  -25.5580 C   0  0  0  0  0  0  0  0  0  0  0  0
  -19.1096   31.9311  -23.8789 C   0  0  0  0  0  0  0  0  0  0  0  0
  -19.4821   32.7193  -21.0807 P   0  0  0  0  0  0  0  0  0  0  0  0
  -20.8327   33.3717  -21.2456 O   0  0  0  0  0  0  0  0  0  0  0  0
  -19.3985   32.8525  -19.5509 O   0  0  0  0  0  0  0  0  0  0  0  0
  -18.4090   33.7256  -21.5430 O   0  0  0  0  0  0  0  0  0  0  0  0
  -16.1799   34.6410  -25.6514 C   0  0  0  0  0  0  0  0  0  0  0  0
  -15.5545   35.2467  -24.7500 O   0  0  0  0  0  0  0  0  0  0  0  0
  -16.5357   35.2765  -26.7864 O   0  0  0  0  0  0  0  0  0  0  0  0
  1  2  2  0
  2  3  1  0
  2  4  1  0
  3  5  2  3
  5  6  1  0
  6  7  1  0
  7  8  1  0
  6  9  1  0
  9 10  1  0
  8 11  1  0
  8 12  1  0
  9 13  1  0
 11 13  1  0
 10 14  1  0
 14 15  1  0
 14 16  2  0
 14 17  1  0
 12 18  1  0
 18 19  2  0
 18 20  1  0
M  END
