
     RDKit          3D

 20 20  0  0  0  0  0  0  0  0999 V2000
  -16.3208   36.4791  -20.3630 O   0  0  0  0  0  0  0  0  0  0  0  0
  -17.6533   36.8110  -20.6212 P   0  0  0  0  0  0  0  0  0  0  0  0
  -18.0451   35.8662  -21.8615 O   0  0  0  0  0  0  0  0  0  0  0  0
  -17.7271   35.9597  -23.3426 P   0  0  0  0  0  0  0  0  0  0  0  0
  -18.0426   34.7049  -23.9737 O   0  0  0  0  0  0  0  0  0  0  0  0
  -16.1975   36.3002  -23.3274 O   0  0  0  0  0  0  0  0  0  0  0  0
  -18.4897   36.1575  -19.4052 O   0  0  0  0  0  0  0  0  0  0  0  0
  -17.2606   34.1270  -25.0309 C   0  0  0  0  0  0  0  0  0  0  0  0
  -18.6396   37.1640  -23.7382 O   0  0  0  0  0  0  0  0  0  0  0  0
  -17.9768   38.1461  -20.8895 O   0  0  0  0  0  0  0  0  0  0  0  0
  -17.8777   34.1711  -26.2974 C   0  0  0  0  0  0  0  0  0  0  0  0
  -17.4052   33.4572  -27.2651 C   0  0  0  0  0  0  0  0  0  0  0  0
  -19.3242   33.6723  -26.0937 O   0  0  0  0  0  0  0  0  0  0  0  0
  -16.8435   32.7192  -24.9805 C   0  0  0  0  0  0  0  0  0  0  0  0
  -19.7749   33.0396  -27.0835 C   0  0  0  0  0  0  0  0  0  0  0  0
  -19.6493   31.7114  -26.9485 O   0  0  0  0  0  0  0  0  0  0  0  0
  -20.1487   31.2609  -25.7799 C   0  0  0  0  0  0  0  0  0  0  0  0
  -16.5532   32.5061  -26.4541 C   0  0  0  0  0  0  0  0  0  0  0  0
  -16.3388   34.2566  -27.9563 O   0  0  0  0  0  0  0  0  0  0  0  0
  -15.6791   32.5277  -24.2165 N   0  0  0  0  0  0  0  0  0  0  0  0
  1  2  1  0
  2  3  1  0
  3  4  1  0
  4  5  1  0
  4  6  2  0
  2  7  1  0
  5  8  1  0
  4  9  1  0
  2 10  2  0
  8 11  1  0
 11 12  1  0
 11 13  1  0
  8 14  1  0
 13 15  1  0
 15 16  1  0
 16 17  1  0
 12 18  1  0
 14 18  1  0
 12 19  1  0
 14 20  1  0
M  END
