
     RDKit          3D

  8  7  0  0  0  0  0  0  0  0999 V2000
  -13.3302   34.0354  -34.2022 C   0  0  0  0  0  0  0  0  0  0  0  0
  -13.6672   33.5869  -33.1780 C   0  0  0  0  0  0  0  0  0  0  0  0
  -13.0456   34.7281  -35.3467 C   0  0  0  0  0  0  0  0  0  0  0  0
  -13.9953   32.7754  -32.0021 C   0  0  0  0  0  0  0  0  0  0  0  0
  -13.9568   33.1427  -30.8462 C   0  0  0  0  0  0  0  0  0  0  0  0
  -13.6428   34.4777  -30.4828 C   0  0  0  0  0  0  0  0  0  0  0  0
  -12.5253   34.9582  -30.3507 C   0  0  0  0  0  0  0  0  0  0  0  0
  -11.8347   35.1677  -30.3738 N   0  0  0  0  0  0  0  0  0  0  0  0
  1  2  3  0
  1  3  1  0
  2  4  1  0
  4  5  2  3
  5  6  1  0
  6  7  1  0
  7  8  1  0
M  END
