
     RDKit          3D

 21 23  0  0  0  0  0  0  0  0999 V2000
  -17.5652   35.9850  -19.5782 O   0  0  0  0  0  0  0  0  0  0  0  0
  -17.7569   36.4783  -20.8179 P   0  0  0  0  0  0  0  0  0  0  0  0
  -18.7451   37.4142  -20.8887 O   0  0  0  0  0  0  0  0  0  0  0  0
  -18.1650   35.3594  -21.9421 O   0  0  0  0  0  0  0  0  0  0  0  0
  -16.3731   37.0146  -21.3492 O   0  0  0  0  0  0  0  0  0  0  0  0
  -18.0699   35.4413  -23.4330 P   0  0  0  0  0  0  0  0  0  0  0  0
  -16.6691   35.5114  -23.6768 O   0  0  0  0  0  0  0  0  0  0  0  0
  -18.7456   36.5712  -24.0695 O   0  0  0  0  0  0  0  0  0  0  0  0
  -15.8881   34.5757  -24.6001 C   0  0  0  0  0  0  0  0  0  0  0  0
  -15.2825   35.0968  -25.5772 C   0  0  0  0  0  0  0  0  0  0  0  0
  -15.8227   35.1679  -26.9387 C   0  0  0  0  0  0  0  0  0  0  0  0
  -16.8185   34.3049  -27.2500 C   0  0  0  0  0  0  0  0  0  0  0  0
  -18.6692   34.0760  -23.8720 O   0  0  0  0  0  0  0  0  0  0  0  0
  -17.7240   33.7695  -26.3202 C   0  0  0  0  0  0  0  0  0  0  0  0
  -18.8260   33.0239  -26.7190 C   0  0  0  0  0  0  0  0  0  0  0  0
  -17.1913   33.6964  -24.8355 C   0  0  0  0  0  0  0  0  0  0  0  0
  -19.4180   32.0342  -26.1992 C   0  0  0  0  0  0  0  0  0  0  0  0
  -20.5627   31.4063  -26.8367 C   0  0  0  0  0  0  0  0  0  0  0  0
  -19.6580   33.4217  -27.9128 C   0  0  0  0  0  0  0  0  0  0  0  0
  -20.7446   32.3867  -28.0002 N   0  0  0  0  0  0  0  0  0  0  0  0
  -21.7025   32.3496  -29.0445 C   0  0  0  0  0  0  0  0  0  0  0  0
  1  2  1  0
  2  3  2  0
  2  4  1  0
  2  5  1  0
  4  6  1  0
  6  7  1  0
  6  8  2  0
  7  9  1  0
  9 10  2  0
 10 11  1  0
 11 12  2  0
  6 13  1  0
 12 14  1  0
 14 15  1  0
  9 16  1  0
 13 16  1  0
 14 16  1  0
 15 17  1  0
 17 18  2  0
 15 19  2  0
 18 20  1  0
 19 20  1  0
 20 21  1  0
M  END
