
     RDKit          3D

  3  2  0  0  0  0  0  0  0  0999 V2000
  -12.0167   26.4731  -21.6301 O   0  0  0  0  0  0  0  0  0  0  0  0
  -11.4055   25.8438  -20.5375 C   0  0  0  0  0  0  0  0  0  0  0  0
  -10.3236   25.1943  -20.7522 C   0  0  0  0  0  0  0  0  0  0  0  0
  1  2  2  0
  2  3  1  0
M  END
