
     RDKit          3D

 21 22  0  0  0  0  0  0  0  0999 V2000
  -13.9286   27.6285  -22.4975 O   0  0  0  0  0  0  0  0  0  0  0  0
  -15.2580   28.0637  -22.2037 C   0  0  0  0  0  0  0  0  0  0  0  0
  -16.1618   27.3023  -21.9886 N   0  0  0  0  0  0  0  0  0  0  0  0
  -15.5023   29.5921  -22.3890 C   0  0  0  0  0  0  0  0  0  0  0  0
  -14.7284   30.3596  -22.9696 C   0  0  0  0  0  0  0  0  0  0  0  0
  -16.8009   29.9463  -21.8604 C   0  0  0  0  0  0  0  0  0  0  0  0
  -13.4030   29.9652  -23.4260 O   0  0  0  0  0  0  0  0  0  0  0  0
  -15.0312   31.7597  -23.0822 C   0  0  0  0  0  0  0  0  0  0  0  0
  -16.2585   32.1665  -22.7555 C   0  0  0  0  0  0  0  0  0  0  0  0
  -17.1404   31.2816  -22.1151 C   0  0  0  0  0  0  0  0  0  0  0  0
  -16.6991   33.5078  -22.9154 N   0  0  0  0  0  0  0  0  0  0  0  0
  -16.1560   34.2474  -23.9949 C   0  0  0  0  0  0  0  0  0  0  0  0
  -18.3296   31.7137  -21.5975 C   0  0  0  0  0  0  0  0  0  0  0  0
  -17.8561   33.9629  -22.3692 C   0  0  0  0  0  0  0  0  0  0  0  0
  -18.6300   33.0540  -21.5928 C   0  0  0  0  0  0  0  0  0  0  0  0
  -16.0972   35.4072  -24.0668 O   0  0  0  0  0  0  0  0  0  0  0  0
  -19.2995   30.8737  -21.1593 O   0  0  0  0  0  0  0  0  0  0  0  0
  -15.6003   33.3512  -25.1099 O   0  0  0  0  0  0  0  0  0  0  0  0
  -18.7745   33.4592  -20.1490 C   0  0  0  0  0  0  0  0  0  0  0  0
  -19.9061   33.4774  -19.6563 O   0  0  0  0  0  0  0  0  0  0  0  0
  -17.8697   33.9018  -19.5016 O   0  0  0  0  0  0  0  0  0  0  0  0
  1  2  2  0
  2  3  1  0
  2  4  1  0
  4  5  2  0
  4  6  1  0
  5  7  1  0
  5  8  1  0
  8  9  2  0
  6 10  2  0
  9 10  1  0
  9 11  1  0
 11 12  1  0
 10 13  1  0
 11 14  1  0
 13 15  1  0
 14 15  1  0
 12 16  2  0
 13 17  2  0
 12 18  1  0
 15 19  1  0
 19 20  2  0
 19 21  1  0
M  END
