
     RDKit          3D

 21 21  0  0  0  0  0  0  0  0999 V2000
  -14.5825   27.4552  -22.7613 O   0  0  0  0  0  0  0  0  0  0  0  0
  -15.4285   28.4295  -22.2383 C   0  0  0  0  0  0  0  0  0  0  0  0
  -15.1268   29.7375  -22.3734 N   0  0  0  0  0  0  0  0  0  0  0  0
  -16.0435   30.7137  -22.1356 C   0  0  0  0  0  0  0  0  0  0  0  0
  -16.4306   31.4539  -23.4378 C   0  0  0  0  0  0  0  0  0  0  0  0
  -16.6156   28.0330  -21.7444 O   0  0  0  0  0  0  0  0  0  0  0  0
  -17.6667   32.0512  -23.4819 N   0  0  0  0  0  0  0  0  0  0  0  0
  -17.9874   33.1918  -23.6586 C   0  0  0  0  0  0  0  0  0  0  0  0
  -17.7406   33.8401  -24.7747 N   0  0  0  0  0  0  0  0  0  0  0  0
  -18.6596   31.0611  -22.9477 C   0  0  0  0  0  0  0  0  0  0  0  0
  -18.6791   34.1007  -22.6971 C   0  0  0  0  0  0  0  0  0  0  0  0
  -17.1633   33.0800  -25.9325 C   0  0  0  0  0  0  0  0  0  0  0  0
  -17.7927   33.4633  -27.2633 C   0  0  0  0  0  0  0  0  0  0  0  0
  -16.2591   32.2259  -25.8688 O   0  0  0  0  0  0  0  0  0  0  0  0
  -18.8654   30.0763  -23.3878 O   0  0  0  0  0  0  0  0  0  0  0  0
  -19.1267   31.2846  -21.4874 C   0  0  0  0  0  0  0  0  0  0  0  0
  -18.8798   32.5747  -20.9167 O   0  0  0  0  0  0  0  0  0  0  0  0
  -19.4173   33.7012  -21.5916 C   0  0  0  0  0  0  0  0  0  0  0  0
  -19.5383   34.7918  -20.6388 O   0  0  0  0  0  0  0  0  0  0  0  0
  -17.9992   35.3121  -22.5296 O   0  0  0  0  0  0  0  0  0  0  0  0
  -19.9983   30.5671  -20.9462 O   0  0  0  0  0  0  0  0  0  0  0  0
  1  2  2  0
  2  3  1  0
  3  4  1  0
  4  5  1  0
  2  6  1  0
  5  7  1  0
  7  8  1  0
  8  9  2  3
  7 10  1  0
  8 11  1  0
  9 12  1  0
 12 13  1  0
 12 14  2  0
 10 15  2  0
 10 16  1  0
 16 17  1  0
 11 18  1  0
 17 18  1  0
 18 19  1  0
 11 20  1  0
 16 21  2  0
M  END
