
     RDKit          3D

  5  4  0  0  0  0  0  0  0  0999 V2000
  -13.2303   27.0584  -22.1118 O   0  0  0  0  0  0  0  0  0  0  0  0
  -14.4789   27.0715  -21.5879 C   0  0  0  0  0  0  0  0  0  0  0  0
  -15.1773   28.2688  -22.2875 C   0  0  0  0  0  0  0  0  0  0  0  0
  -16.5054   28.2179  -22.2418 O   0  0  0  0  0  0  0  0  0  0  0  0
  -14.7401   29.5516  -22.3439 O   0  0  0  0  0  0  0  0  0  0  0  0
  1  2  2  0
  2  3  1  0
  3  4  2  0
  3  5  1  0
M  END
