
     RDKit          3D

 21 21  0  0  0  0  0  0  0  0999 V2000
  -21.7416   34.3124  -21.1024 O   0  0  0  0  0  0  0  0  0  0  0  0
  -20.5795   34.6307  -21.6310 C   0  0  0  0  0  0  0  0  0  0  0  0
  -19.3414   33.9319  -21.1963 C   0  0  0  0  0  0  0  0  0  0  0  0
  -20.4782   34.9157  -23.0089 O   0  0  0  0  0  0  0  0  0  0  0  0
  -20.2310   36.3646  -23.5168 C   0  0  0  0  0  0  0  0  0  0  0  0
  -18.8735   36.6382  -23.3242 C   0  0  0  0  0  0  0  0  0  0  0  0
  -18.6144   33.3464  -21.9279 O   0  0  0  0  0  0  0  0  0  0  0  0
  -20.7745   36.6606  -24.7674 C   0  0  0  0  0  0  0  0  0  0  0  0
  -18.6602   31.7650  -22.0544 C   0  0  0  0  0  0  0  0  0  0  0  0
  -19.5038   33.2854  -19.9470 C   0  0  0  0  0  0  0  0  0  0  0  0
  -18.6974   31.1921  -23.3294 C   0  0  0  0  0  0  0  0  0  0  0  0
  -21.4675   37.7249  -24.9335 O   0  0  0  0  0  0  0  0  0  0  0  0
  -19.5087   36.6400  -25.6542 C   0  0  0  0  0  0  0  0  0  0  0  0
  -19.4623   37.3189  -26.7995 O   0  0  0  0  0  0  0  0  0  0  0  0
  -19.5248   32.0264  -19.9497 O   0  0  0  0  0  0  0  0  0  0  0  0
  -18.4008   37.0771  -24.6575 C   0  0  0  0  0  0  0  0  0  0  0  0
  -17.0837   36.5420  -25.0469 O   0  0  0  0  0  0  0  0  0  0  0  0
  -19.5544   30.6273  -23.8196 O   0  0  0  0  0  0  0  0  0  0  0  0
  -17.4676   31.4701  -24.0038 O   0  0  0  0  0  0  0  0  0  0  0  0
  -18.5568   37.6854  -22.3118 O   0  0  0  0  0  0  0  0  0  0  0  0
  -19.8066   33.9494  -18.9807 O   0  0  0  0  0  0  0  0  0  0  0  0
  1  2  1  0
  2  3  1  0
  2  4  1  0
  4  5  1  0
  5  6  1  0
  3  7  1  0
  5  8  1  0
  7  9  1  0
  3 10  1  0
  9 11  1  0
  8 12  1  0
  8 13  1  0
 13 14  1  0
 10 15  2  0
  6 16  1  0
 13 16  1  0
 16 17  1  0
 11 18  2  0
 11 19  1  0
  6 20  1  0
 10 21  1  0
M  END
