
     RDKit          3D

  7  6  0  0  0  0  0  0  0  0999 V2000
  -11.0479   34.9457  -29.6279 C   0  0  0  0  0  0  0  0  0  0  0  0
  -11.0344   35.1340  -30.7419 O   0  0  0  0  0  0  0  0  0  0  0  0
  -11.9657   34.2079  -31.5234 C   0  0  0  0  0  0  0  0  0  0  0  0
  -10.7018   36.2074  -28.8472 C   0  0  0  0  0  0  0  0  0  0  0  0
  -12.5964   34.5080  -32.6182 C   0  0  0  0  0  0  0  0  0  0  0  0
  -13.3699   33.6547  -33.2980 C   0  0  0  0  0  0  0  0  0  0  0  0
  -11.6358   37.0430  -29.0254 O   0  0  0  0  0  0  0  0  0  0  0  0
  1  2  1  0
  2  3  1  0
  1  4  1  0
  3  5  1  0
  5  6  2  0
  4  7  1  0
M  END
