
     RDKit          3D

  8  7  0  0  0  0  0  0  0  0999 V2000
  -13.9122   27.5043  -22.6589 O   0  0  0  0  0  0  0  0  0  0  0  0
  -15.3129   27.6911  -22.1238 C   0  0  0  0  0  0  0  0  0  0  0  0
  -15.6701   29.1054  -22.1522 C   0  0  0  0  0  0  0  0  0  0  0  0
  -15.9085   26.9378  -21.4618 O   0  0  0  0  0  0  0  0  0  0  0  0
  -14.8632   30.1052  -22.5911 C   0  0  0  0  0  0  0  0  0  0  0  0
  -15.5438   31.4318  -22.7996 C   0  0  0  0  0  0  0  0  0  0  0  0
  -14.9705   32.0424  -23.9723 O   0  0  0  0  0  0  0  0  0  0  0  0
  -16.4684   31.9048  -22.2538 O   0  0  0  0  0  0  0  0  0  0  0  0
  1  2  2  0
  2  3  1  0
  2  4  1  0
  3  5  2  3
  5  6  1  0
  6  7  1  0
  6  8  2  0
M  END
