
     RDKit          3D

  8  7  0  0  0  0  0  0  0  0999 V2000
  -11.0689   26.1642  -21.1931 O   0  0  0  0  0  0  0  0  0  0  0  0
  -12.2176   26.0354  -21.4210 C   0  0  0  0  0  0  0  0  0  0  0  0
  -12.7341   24.9295  -20.9799 N   0  0  0  0  0  0  0  0  0  0  0  0
  -13.0245   26.8894  -22.0163 C   0  0  0  0  0  0  0  0  0  0  0  0
  -14.4038   26.9143  -21.5874 C   0  0  0  0  0  0  0  0  0  0  0  0
  -15.1664   27.9306  -22.3446 C   0  0  0  0  0  0  0  0  0  0  0  0
  -16.3227   27.7712  -22.5356 O   0  0  0  0  0  0  0  0  0  0  0  0
  -14.6439   29.0594  -22.6123 O   0  0  0  0  0  0  0  0  0  0  0  0
  1  2  2  0
  2  3  1  0
  2  4  1  0
  4  5  1  0
  5  6  1  0
  6  7  1  0
  6  8  2  0
M  END
