
     RDKit          3D

  8  7  0  0  0  0  0  0  0  0999 V2000
  -12.7331   26.8231  -21.3384 C   0  0  0  0  0  0  0  0  0  0  0  0
  -13.8693   27.0786  -21.7415 N   0  0  0  0  0  0  0  0  0  0  0  0
  -11.6239   26.1842  -20.8988 C   0  0  0  0  0  0  0  0  0  0  0  0
  -10.7026   26.8571  -20.3896 C   0  0  0  0  0  0  0  0  0  0  0  0
   -9.5748   26.0704  -20.2165 C   0  0  0  0  0  0  0  0  0  0  0  0
  -10.7219   28.0557  -20.0244 C   0  0  0  0  0  0  0  0  0  0  0  0
  -11.2637   28.8726  -20.3445 C   0  0  0  0  0  0  0  0  0  0  0  0
  -10.8965   29.9287  -20.4630 C   0  0  0  0  0  0  0  0  0  0  0  0
  1  2  3  0
  1  3  1  0
  3  4  1  0
  4  5  1  0
  4  6  2  3
  6  7  1  0
  7  8  1  0
M  END
