
     RDKit          3D

 10 10  0  0  0  0  0  0  0  0999 V2000
  -11.0689   26.1642  -21.1931 O   0  0  0  0  0  0  0  0  0  0  0  0
  -12.2176   26.0354  -21.4210 C   0  0  0  0  0  0  0  0  0  0  0  0
  -12.7341   24.9295  -20.9799 N   0  0  0  0  0  0  0  0  0  0  0  0
  -13.0245   26.8894  -22.0163 C   0  0  0  0  0  0  0  0  0  0  0  0
  -14.4038   26.9143  -21.5874 C   0  0  0  0  0  0  0  0  0  0  0  0
  -15.0400   26.2251  -20.8739 C   0  0  0  0  0  0  0  0  0  0  0  0
  -16.3450   26.2244  -20.6577 C   0  0  0  0  0  0  0  0  0  0  0  0
  -15.2314   28.0629  -21.9561 C   0  0  0  0  0  0  0  0  0  0  0  0
  -17.0635   27.1943  -21.0520 C   0  0  0  0  0  0  0  0  0  0  0  0
  -16.5415   28.1885  -21.8022 C   0  0  0  0  0  0  0  0  0  0  0  0
  1  2  2  0
  2  3  1  0
  2  4  1  0
  4  5  1  0
  5  6  2  0
  6  7  1  0
  5  8  1  0
  7  9  2  0
  8 10  2  0
  9 10  1  0
M  END
