
     RDKit          3D

 11 11  0  0  0  0  0  0  0  0999 V2000
  -11.0479   34.9457  -29.6279 C   0  0  0  0  0  0  0  0  0  0  0  0
  -11.0344   35.1340  -30.7419 C   0  0  0  0  0  0  0  0  0  0  0  0
  -10.8268   36.0678  -28.8361 C   0  0  0  0  0  0  0  0  0  0  0  0
  -11.0952   37.2840  -29.2962 C   0  0  0  0  0  0  0  0  0  0  0  0
  -11.5355   36.0270  -31.2351 C   0  0  0  0  0  0  0  0  0  0  0  0
  -11.6032   37.1780  -30.6980 C   0  0  0  0  0  0  0  0  0  0  0  0
  -12.1856   36.1190  -32.8760 C   0  0  0  0  0  0  0  0  0  0  0  0
  -13.2009   35.2033  -33.0689 C   0  0  0  0  0  0  0  0  0  0  0  0
  -13.7415   34.7109  -31.8895 N   0  0  0  0  0  0  0  0  0  0  0  0
  -13.4447   33.3651  -31.6095 C   0  0  0  0  0  0  0  0  0  0  0  0
  -13.3601   34.7078  -34.0911 O   0  0  0  0  0  0  0  0  0  0  0  0
  1  2  1  0
  1  3  2  0
  3  4  1  0
  2  5  2  0
  4  6  2  0
  5  6  1  0
  5  7  1  0
  7  8  1  0
  8  9  1  0
  9 10  1  0
  8 11  2  0
M  END
