
     RDKit          3D

 12 11  0  0  0  0  0  0  0  0999 V2000
  -14.5825   27.4552  -22.7613 O   0  0  0  0  0  0  0  0  0  0  0  0
  -15.5359   27.9900  -21.9014 C   0  0  0  0  0  0  0  0  0  0  0  0
  -16.3468   27.3975  -21.3305 O   0  0  0  0  0  0  0  0  0  0  0  0
  -15.8169   29.5035  -22.1016 C   0  0  0  0  0  0  0  0  0  0  0  0
  -14.9026   30.2120  -22.6832 O   0  0  0  0  0  0  0  0  0  0  0  0
  -17.0903   29.9028  -21.9508 N   0  0  0  0  0  0  0  0  0  0  0  0
  -17.3600   31.2898  -22.3060 C   0  0  0  0  0  0  0  0  0  0  0  0
  -18.4009   31.8583  -21.4397 C   0  0  0  0  0  0  0  0  0  0  0  0
  -19.2976   31.1757  -20.8836 O   0  0  0  0  0  0  0  0  0  0  0  0
  -17.8841   31.1605  -23.8014 C   0  0  0  0  0  0  0  0  0  0  0  0
  -19.1866   31.4145  -23.9858 O   0  0  0  0  0  0  0  0  0  0  0  0
  -18.3852   33.1699  -21.2021 O   0  0  0  0  0  0  0  0  0  0  0  0
  1  2  2  0
  2  3  1  0
  2  4  1  0
  4  5  2  0
  4  6  1  0
  6  7  1  0
  7  8  1  0
  8  9  1  0
  7 10  1  0
 10 11  1  0
  8 12  2  0
M  END
