
     RDKit          3D

 12 12  0  0  0  0  0  0  0  0999 V2000
  -11.0479   34.9457  -29.6279 C   0  0  0  0  0  0  0  0  0  0  0  0
  -11.0344   35.1340  -30.7419 C   0  0  0  0  0  0  0  0  0  0  0  0
  -11.0436   33.8430  -29.0309 C   0  0  0  0  0  0  0  0  0  0  0  0
  -10.9109   36.1084  -28.8678 C   0  0  0  0  0  0  0  0  0  0  0  0
  -11.9155   34.0617  -31.4629 C   0  0  0  0  0  0  0  0  0  0  0  0
  -12.9125   34.1878  -32.0305 C   0  0  0  0  0  0  0  0  0  0  0  0
  -11.6224   36.0709  -27.6771 C   0  0  0  0  0  0  0  0  0  0  0  0
  -12.8149   34.9536  -33.1221 C   0  0  0  0  0  0  0  0  0  0  0  0
  -12.5293   36.8386  -27.4401 O   0  0  0  0  0  0  0  0  0  0  0  0
  -12.8598   34.4142  -34.2063 O   0  0  0  0  0  0  0  0  0  0  0  0
  -11.7571   34.9516  -27.1179 C   0  0  0  0  0  0  0  0  0  0  0  0
  -11.3563   33.7232  -27.7183 C   0  0  0  0  0  0  0  0  0  0  0  0
  1  2  1  0
  1  3  1  0
  1  4  1  0
  2  5  1  0
  5  6  1  0
  4  7  1  0
  6  8  1  0
  7  9  1  0
  8 10  2  0
  7 11  2  0
  3 12  2  0
 11 12  1  0
M  END
