
     RDKit          3D

 12 12  0  0  0  0  0  0  0  0999 V2000
  -10.8642   26.1972  -20.7740 O   0  0  0  0  0  0  0  0  0  0  0  0
  -11.7372   25.7247  -21.3169 C   0  0  0  0  0  0  0  0  0  0  0  0
  -11.8400   24.4806  -21.5461 N   0  0  0  0  0  0  0  0  0  0  0  0
  -12.7011   26.4777  -21.9389 N   0  0  0  0  0  0  0  0  0  0  0  0
  -12.5175   27.4747  -22.5539 C   0  0  0  0  0  0  0  0  0  0  0  0
  -11.4244   27.9537  -22.9294 C   0  0  0  0  0  0  0  0  0  0  0  0
  -13.7851   28.1341  -22.8694 C   0  0  0  0  0  0  0  0  0  0  0  0
  -13.8291   29.5861  -22.6206 C   0  0  0  0  0  0  0  0  0  0  0  0
  -15.2005   30.0765  -22.6263 C   0  0  0  0  0  0  0  0  0  0  0  0
  -14.8271   27.4103  -23.2015 C   0  0  0  0  0  0  0  0  0  0  0  0
  -16.1643   29.1886  -22.8211 C   0  0  0  0  0  0  0  0  0  0  0  0
  -16.1146   27.9347  -23.0664 C   0  0  0  0  0  0  0  0  0  0  0  0
  1  2  2  0
  2  3  1  0
  2  4  1  0
  4  5  2  3
  5  6  1  0
  5  7  1  0
  7  8  1  0
  8  9  2  0
  7 10  2  0
  9 11  1  0
 10 12  1  0
 11 12  2  0
M  END
