
     RDKit          3D

 14 15  0  0  0  0  0  0  0  0999 V2000
  -19.1726   34.4821  -19.8441 O   0  0  0  0  0  0  0  0  0  0  0  0
  -19.3740   33.3617  -20.4439 P   0  0  0  0  0  0  0  0  0  0  0  0
  -19.6259   32.1365  -19.7394 O   0  0  0  0  0  0  0  0  0  0  0  0
  -18.1229   32.9761  -21.4306 O   0  0  0  0  0  0  0  0  0  0  0  0
  -20.5213   33.6120  -21.4649 O   0  0  0  0  0  0  0  0  0  0  0  0
  -18.0029   33.2571  -22.9478 C   0  0  0  0  0  0  0  0  0  0  0  0
  -17.6420   32.1367  -23.6856 C   0  0  0  0  0  0  0  0  0  0  0  0
  -18.0403   30.9545  -23.1893 C   0  0  0  0  0  0  0  0  0  0  0  0
  -16.9091   30.3256  -22.4288 N   0  0  0  0  0  0  0  0  0  0  0  0
  -16.2387   32.1602  -24.0845 O   0  0  0  0  0  0  0  0  0  0  0  0
  -16.3742   29.3293  -22.1276 C   0  0  0  0  0  0  0  0  0  0  0  0
  -14.9623   29.3356  -21.9091 N   0  0  0  0  0  0  0  0  0  0  0  0
  -14.6700   30.4056  -22.4807 N   0  0  0  0  0  0  0  0  0  0  0  0
  -15.7805   31.0741  -23.1192 C   0  0  0  0  0  0  0  0  0  0  0  0
  1  2  1  0
  2  3  1  0
  2  4  1  0
  2  5  2  0
  4  6  1  0
  6  7  1  0
  7  8  1  0
  8  9  1  0
  7 10  1  0
  9 11  1  0
 11 12  2  0
 12 13  1  0
  9 14  1  0
 10 14  1  0
 13 14  2  0
M  END
