
     RDKit          3D

 14 13  0  0  0  0  0  0  0  0999 V2000
  -14.2243   27.6705  -22.0318 O   0  0  0  0  0  0  0  0  0  0  0  0
  -15.5362   27.9716  -21.7899 C   0  0  0  0  0  0  0  0  0  0  0  0
  -15.8188   29.3906  -22.0883 N   0  0  0  0  0  0  0  0  0  0  0  0
  -17.0879   29.8973  -22.1437 C   0  0  0  0  0  0  0  0  0  0  0  0
  -17.0526   31.2193  -22.8080 C   0  0  0  0  0  0  0  0  0  0  0  0
  -16.4557   27.2749  -21.2351 N   0  0  0  0  0  0  0  0  0  0  0  0
  -18.3358   31.9045  -22.8598 C   0  0  0  0  0  0  0  0  0  0  0  0
  -19.1900   31.5115  -21.9910 O   0  0  0  0  0  0  0  0  0  0  0  0
  -18.5104   32.8509  -23.7638 O   0  0  0  0  0  0  0  0  0  0  0  0
  -16.3964   31.1867  -24.1217 C   0  0  0  0  0  0  0  0  0  0  0  0
  -19.5824   32.2229  -20.6419 P   0  0  0  0  0  0  0  0  0  0  0  0
  -19.2195   33.6122  -20.8412 O   0  0  0  0  0  0  0  0  0  0  0  0
  -21.1349   32.1453  -20.6463 O   0  0  0  0  0  0  0  0  0  0  0  0
  -19.0306   31.6029  -19.5603 O   0  0  0  0  0  0  0  0  0  0  0  0
  1  2  2  0
  2  3  1  0
  3  4  1  0
  4  5  1  0
  2  6  1  0
  5  7  1  0
  7  8  1  0
  7  9  2  0
  5 10  1  0
  8 11  1  0
 11 12  1  0
 11 13  1  0
 11 14  2  0
M  END
