
     RDKit          3D

 15 14  0  0  0  0  0  0  0  0999 V2000
  -14.5825   27.4552  -22.7613 O   0  0  0  0  0  0  0  0  0  0  0  0
  -15.5359   27.9900  -21.9014 C   0  0  0  0  0  0  0  0  0  0  0  0
  -16.3468   27.3975  -21.3305 O   0  0  0  0  0  0  0  0  0  0  0  0
  -15.8169   29.5035  -22.1016 C   0  0  0  0  0  0  0  0  0  0  0  0
  -14.9026   30.2120  -22.6832 O   0  0  0  0  0  0  0  0  0  0  0  0
  -17.0903   29.9028  -21.9508 N   0  0  0  0  0  0  0  0  0  0  0  0
  -17.3600   31.2898  -22.3060 C   0  0  0  0  0  0  0  0  0  0  0  0
  -18.4009   31.8583  -21.4397 C   0  0  0  0  0  0  0  0  0  0  0  0
  -19.2976   31.1757  -20.8836 O   0  0  0  0  0  0  0  0  0  0  0  0
  -17.8841   31.1605  -23.8014 C   0  0  0  0  0  0  0  0  0  0  0  0
  -18.3081   33.0383  -20.9355 O   0  0  0  0  0  0  0  0  0  0  0  0
  -19.2707   31.2997  -23.9922 C   0  0  0  0  0  0  0  0  0  0  0  0
  -19.6172   31.2137  -25.4323 C   0  0  0  0  0  0  0  0  0  0  0  0
  -20.8147   31.0317  -25.8421 O   0  0  0  0  0  0  0  0  0  0  0  0
  -18.7957   31.9267  -26.2557 N   0  0  0  0  0  0  0  0  0  0  0  0
  1  2  2  0
  2  3  1  0
  2  4  1  0
  4  5  2  0
  4  6  1  0
  6  7  1  0
  7  8  1  0
  8  9  1  0
  7 10  1  0
  8 11  2  0
 10 12  1  0
 12 13  1  0
 13 14  2  0
 13 15  1  0
M  END
