
     RDKit          3D

  4  3  0  0  0  0  0  0  0  0999 V2000
  -11.6597   26.3782  -21.2017 O   0  0  0  0  0  0  0  0  0  0  0  0
  -10.7227   25.9025  -20.8204 C   0  0  0  0  0  0  0  0  0  0  0  0
  -10.5364   24.8130  -20.3422 O   0  0  0  0  0  0  0  0  0  0  0  0
   -9.5713   26.6339  -21.0055 N   0  0  0  0  0  0  0  0  0  0  0  0
  1  2  2  0
  2  3  1  0
  2  4  1  0
M  END
