
     RDKit          3D

 15 14  0  0  0  0  0  0  0  0999 V2000
  -20.9725   33.4920  -20.6001 O   0  0  0  0  0  0  0  0  0  0  0  0
  -19.6199   33.3403  -20.7789 P   0  0  0  0  0  0  0  0  0  0  0  0
  -19.2591   32.8557  -22.1472 O   0  0  0  0  0  0  0  0  0  0  0  0
  -18.4805   33.4198  -23.3293 C   0  0  0  0  0  0  0  0  0  0  0  0
  -18.7433   34.6505  -20.8169 O   0  0  0  0  0  0  0  0  0  0  0  0
  -18.0276   32.3925  -24.3029 C   0  0  0  0  0  0  0  0  0  0  0  0
  -19.0067   32.2797  -19.8757 O   0  0  0  0  0  0  0  0  0  0  0  0
  -16.6861   32.3716  -24.6481 C   0  0  0  0  0  0  0  0  0  0  0  0
  -18.8260   31.2462  -24.1961 O   0  0  0  0  0  0  0  0  0  0  0  0
  -16.0749   33.3822  -25.3058 O   0  0  0  0  0  0  0  0  0  0  0  0
  -15.9203   31.3412  -24.2643 O   0  0  0  0  0  0  0  0  0  0  0  0
  -15.8760   34.6124  -24.7509 C   0  0  0  0  0  0  0  0  0  0  0  0
  -16.8332   35.5984  -25.2577 C   0  0  0  0  0  0  0  0  0  0  0  0
  -17.0411   35.6608  -26.5664 C   0  0  0  0  0  0  0  0  0  0  0  0
  -17.2960   36.5422  -24.4390 O   0  0  0  0  0  0  0  0  0  0  0  0
  1  2  1  0
  2  3  1  0
  3  4  1  0
  2  5  1  0
  4  6  1  0
  2  7  2  0
  6  8  1  0
  6  9  1  0
  8 10  1  0
  8 11  2  0
 10 12  1  0
 12 13  1  0
 13 14  1  0
 13 15  2  0
M  END
