
     RDKit          3D

 16 15  0  0  0  0  0  0  0  0999 V2000
  -20.9725   33.4920  -20.6001 O   0  0  0  0  0  0  0  0  0  0  0  0
  -19.5530   33.0516  -20.6095 P   0  0  0  0  0  0  0  0  0  0  0  0
  -19.2134   32.5649  -21.9961 O   0  0  0  0  0  0  0  0  0  0  0  0
  -18.5077   34.1719  -20.4094 O   0  0  0  0  0  0  0  0  0  0  0  0
  -19.4407   31.9021  -19.6400 O   0  0  0  0  0  0  0  0  0  0  0  0
  -18.6860   31.1499  -22.2922 C   0  0  0  0  0  0  0  0  0  0  0  0
  -17.2680   31.2154  -22.7186 C   0  0  0  0  0  0  0  0  0  0  0  0
  -16.6030   30.0782  -22.4838 N   0  0  0  0  0  0  0  0  0  0  0  0
  -15.3604   29.9440  -22.1493 C   0  0  0  0  0  0  0  0  0  0  0  0
  -14.9107   28.6132  -21.9753 N   0  0  0  0  0  0  0  0  0  0  0  0
  -17.3638   31.5658  -24.1995 C   0  0  0  0  0  0  0  0  0  0  0  0
  -14.7243   30.9141  -21.9180 O   0  0  0  0  0  0  0  0  0  0  0  0
  -18.5833   31.8577  -24.7861 O   0  0  0  0  0  0  0  0  0  0  0  0
  -15.6917   27.4969  -21.9206 C   0  0  0  0  0  0  0  0  0  0  0  0
  -16.9007   27.5625  -22.1783 O   0  0  0  0  0  0  0  0  0  0  0  0
  -14.8594   26.4345  -22.0844 N   0  0  0  0  0  0  0  0  0  0  0  0
  1  2  1  0
  2  3  1  0
  2  4  2  0
  2  5  1  0
  3  6  1  0
  6  7  1  0
  7  8  1  0
  8  9  1  0
  9 10  1  0
  7 11  1  0
  9 12  2  0
 11 13  1  0
 10 14  1  0
 14 15  2  0
 14 16  1  0
M  END
