
     RDKit          3D

 17 18  0  0  0  0  0  0  0  0999 V2000
  -13.9122   27.5043  -22.6589 O   0  0  0  0  0  0  0  0  0  0  0  0
  -15.3129   27.6911  -22.1238 C   0  0  0  0  0  0  0  0  0  0  0  0
  -16.1009   26.9505  -21.8536 N   0  0  0  0  0  0  0  0  0  0  0  0
  -15.5747   29.2197  -22.0300 C   0  0  0  0  0  0  0  0  0  0  0  0
  -17.4210   27.0780  -22.0716 C   0  0  0  0  0  0  0  0  0  0  0  0
  -17.9368   28.4025  -22.0748 C   0  0  0  0  0  0  0  0  0  0  0  0
  -17.1891   29.4925  -22.0377 C   0  0  0  0  0  0  0  0  0  0  0  0
  -14.7144   30.2750  -22.2912 O   0  0  0  0  0  0  0  0  0  0  0  0
  -17.5887   30.8191  -22.0856 C   0  0  0  0  0  0  0  0  0  0  0  0
  -17.9499   31.3748  -21.1719 O   0  0  0  0  0  0  0  0  0  0  0  0
  -18.0908   31.1632  -23.3887 C   0  0  0  0  0  0  0  0  0  0  0  0
  -18.5922   32.4352  -23.3475 C   0  0  0  0  0  0  0  0  0  0  0  0
  -18.6808   32.4485  -21.3208 C   0  0  0  0  0  0  0  0  0  0  0  0
  -18.9679   33.0796  -22.3998 C   0  0  0  0  0  0  0  0  0  0  0  0
  -19.1544   33.0644  -19.9255 C   0  0  0  0  0  0  0  0  0  0  0  0
  -19.0631   34.2707  -19.7318 O   0  0  0  0  0  0  0  0  0  0  0  0
  -19.9556   32.4394  -19.3658 O   0  0  0  0  0  0  0  0  0  0  0  0
  1  2  2  0
  2  3  1  0
  2  4  1  0
  3  5  1  0
  5  6  2  0
  4  7  2  0
  6  7  1  0
  4  8  1  0
  7  9  1  0
  9 10  1  0
  9 11  2  0
 11 12  1  0
 10 13  1  0
 12 14  2  0
 13 14  1  0
 13 15  1  0
 15 16  2  0
 15 17  1  0
M  END
