
     RDKit          3D

  4  3  0  0  0  0  0  0  0  0999 V2000
  -12.0167   26.4731  -21.6301 O   0  0  0  0  0  0  0  0  0  0  0  0
  -10.9913   26.0949  -21.0222 C   0  0  0  0  0  0  0  0  0  0  0  0
   -9.9850   26.8254  -20.7090 N   0  0  0  0  0  0  0  0  0  0  0  0
  -10.8872   24.7027  -20.6476 N   0  0  0  0  0  0  0  0  0  0  0  0
  1  2  2  0
  2  3  1  0
  2  4  1  0
M  END
