
     RDKit          3D

 18 17  0  0  0  0  0  0  0  0999 V2000
  -20.8343   35.0704  -21.8822 O   0  0  0  0  0  0  0  0  0  0  0  0
  -19.9809   34.0872  -21.1896 P   0  0  0  0  0  0  0  0  0  0  0  0
  -19.2113   33.2608  -22.1230 O   0  0  0  0  0  0  0  0  0  0  0  0
  -18.8114   34.7202  -20.2154 O   0  0  0  0  0  0  0  0  0  0  0  0
  -20.7623   33.2413  -20.1992 O   0  0  0  0  0  0  0  0  0  0  0  0
  -18.8118   31.8338  -21.9666 C   0  0  0  0  0  0  0  0  0  0  0  0
  -18.2579   31.2918  -23.1641 C   0  0  0  0  0  0  0  0  0  0  0  0
  -16.8260   31.2215  -23.1888 C   0  0  0  0  0  0  0  0  0  0  0  0
  -18.9886   30.6425  -24.0990 O   0  0  0  0  0  0  0  0  0  0  0  0
  -16.0893   30.2741  -22.6094 N   0  0  0  0  0  0  0  0  0  0  0  0
  -16.3616   29.1186  -22.1434 C   0  0  0  0  0  0  0  0  0  0  0  0
  -15.2776   28.2638  -21.8152 N   0  0  0  0  0  0  0  0  0  0  0  0
  -16.1354   31.7096  -24.4039 C   0  0  0  0  0  0  0  0  0  0  0  0
  -17.4318   28.6653  -22.0491 O   0  0  0  0  0  0  0  0  0  0  0  0
  -15.4726   32.9314  -24.2968 O   0  0  0  0  0  0  0  0  0  0  0  0
  -15.0299   27.2220  -22.3716 C   0  0  0  0  0  0  0  0  0  0  0  0
  -13.8201   26.9269  -22.3753 O   0  0  0  0  0  0  0  0  0  0  0  0
  -15.9208   26.3382  -22.8495 C   0  0  0  0  0  0  0  0  0  0  0  0
  1  2  1  0
  2  3  1  0
  2  4  1  0
  2  5  2  0
  3  6  1  0
  6  7  1  0
  7  8  1  0
  7  9  2  0
  8 10  1  0
 10 11  1  0
 11 12  1  0
  8 13  1  0
 11 14  2  0
 13 15  1  0
 12 16  1  0
 16 17  2  0
 16 18  1  0
M  END
