
     RDKit          3D

 19 19  0  0  0  0  0  0  0  0999 V2000
  -21.7416   34.3124  -21.1024 O   0  0  0  0  0  0  0  0  0  0  0  0
  -20.5795   34.6307  -21.6310 C   0  0  0  0  0  0  0  0  0  0  0  0
  -20.3932   35.7833  -22.1351 O   0  0  0  0  0  0  0  0  0  0  0  0
  -19.5624   33.5545  -21.7514 C   0  0  0  0  0  0  0  0  0  0  0  0
  -19.3085   32.8785  -20.5232 P   0  0  0  0  0  0  0  0  0  0  0  0
  -18.7125   33.2595  -22.8421 C   0  0  0  0  0  0  0  0  0  0  0  0
  -18.1380   34.2186  -23.5850 N   0  0  0  0  0  0  0  0  0  0  0  0
  -19.5433   31.3728  -20.6183 O   0  0  0  0  0  0  0  0  0  0  0  0
  -17.2677   34.0087  -24.6179 C   0  0  0  0  0  0  0  0  0  0  0  0
  -19.0293   32.2328  -23.6690 O   0  0  0  0  0  0  0  0  0  0  0  0
  -15.9572   34.5649  -24.5179 C   0  0  0  0  0  0  0  0  0  0  0  0
  -17.7542   34.1996  -25.9057 C   0  0  0  0  0  0  0  0  0  0  0  0
  -20.0861   33.3216  -19.2324 O   0  0  0  0  0  0  0  0  0  0  0  0
  -17.8401   32.9468  -20.0083 O   0  0  0  0  0  0  0  0  0  0  0  0
  -16.8035   34.3753  -26.9136 C   0  0  0  0  0  0  0  0  0  0  0  0
  -16.3895   33.3552  -27.7248 C   0  0  0  0  0  0  0  0  0  0  0  0
  -15.5744   34.7991  -26.1325 C   0  0  0  0  0  0  0  0  0  0  0  0
  -15.8202   35.8340  -24.0071 O   0  0  0  0  0  0  0  0  0  0  0  0
  -15.5061   33.5953  -28.6902 O   0  0  0  0  0  0  0  0  0  0  0  0
  1  2  1  0
  2  3  2  0
  2  4  1  0
  4  5  1  0
  4  6  1  0
  6  7  1  0
  5  8  1  0
  7  9  1  0
  6 10  2  0
  9 11  1  0
  9 12  1  0
  5 13  2  0
  5 14  1  0
 12 15  1  0
 15 16  1  0
 11 17  1  0
 15 17  1  0
 11 18  1  0
 16 19  1  0
M  END
