
     RDKit          3D

 19 18  0  0  0  0  0  0  0  0999 V2000
  -19.1726   34.4821  -19.8441 O   0  0  0  0  0  0  0  0  0  0  0  0
  -19.3740   33.3617  -20.4439 P   0  0  0  0  0  0  0  0  0  0  0  0
  -18.4681   32.9629  -21.5208 O   0  0  0  0  0  0  0  0  0  0  0  0
  -18.3319   31.5302  -22.2262 C   0  0  0  0  0  0  0  0  0  0  0  0
  -17.3296   31.6237  -23.2665 C   0  0  0  0  0  0  0  0  0  0  0  0
  -20.7692   33.7289  -21.2084 O   0  0  0  0  0  0  0  0  0  0  0  0
  -17.5919   32.2327  -24.3610 N   0  0  0  0  0  0  0  0  0  0  0  0
  -16.2384   30.8894  -23.1654 O   0  0  0  0  0  0  0  0  0  0  0  0
  -18.8458   33.0670  -24.7118 C   0  0  0  0  0  0  0  0  0  0  0  0
  -19.3765   32.1886  -19.5054 O   0  0  0  0  0  0  0  0  0  0  0  0
  -16.6194   32.2125  -25.5547 C   0  0  0  0  0  0  0  0  0  0  0  0
  -15.9504   33.4826  -25.5918 C   0  0  0  0  0  0  0  0  0  0  0  0
  -16.0532   34.3906  -24.5004 C   0  0  0  0  0  0  0  0  0  0  0  0
  -16.2287   35.7533  -24.8486 O   0  0  0  0  0  0  0  0  0  0  0  0
  -15.6842   34.1869  -23.3174 O   0  0  0  0  0  0  0  0  0  0  0  0
  -19.2403   33.0452  -26.0780 C   0  0  0  0  0  0  0  0  0  0  0  0
  -15.7276   33.9237  -26.9165 N   0  0  0  0  0  0  0  0  0  0  0  0
  -19.7113   34.2851  -26.5766 C   0  0  0  0  0  0  0  0  0  0  0  0
  -16.1356   33.0385  -27.9586 C   0  0  0  0  0  0  0  0  0  0  0  0
  1  2  1  0
  2  3  1  0
  3  4  1  0
  4  5  1  0
  2  6  2  0
  5  7  1  0
  5  8  2  0
  7  9  1  0
  2 10  1  0
  7 11  1  0
 11 12  1  0
 12 13  1  0
 13 14  2  0
 13 15  1  0
  9 16  1  0
 12 17  1  0
 16 18  1  0
 17 19  1  0
M  END
