
     RDKit          3D

 20 20  0  0  0  0  0  0  0  0999 V2000
  -19.1726   34.4821  -19.8441 O   0  0  0  0  0  0  0  0  0  0  0  0
  -19.3740   33.3617  -20.4439 P   0  0  0  0  0  0  0  0  0  0  0  0
  -18.4681   32.9629  -21.5208 O   0  0  0  0  0  0  0  0  0  0  0  0
  -18.3319   31.5302  -22.2262 C   0  0  0  0  0  0  0  0  0  0  0  0
  -17.3296   31.6237  -23.2665 C   0  0  0  0  0  0  0  0  0  0  0  0
  -20.7941   33.3913  -21.1524 O   0  0  0  0  0  0  0  0  0  0  0  0
  -16.5015   30.5112  -23.1998 O   0  0  0  0  0  0  0  0  0  0  0  0
  -17.9251   31.7012  -24.6748 C   0  0  0  0  0  0  0  0  0  0  0  0
  -16.0685   30.0320  -21.8780 C   0  0  0  0  0  0  0  0  0  0  0  0
  -17.1445   32.5594  -25.4586 C   0  0  0  0  0  0  0  0  0  0  0  0
  -19.4221   32.2151  -19.3770 O   0  0  0  0  0  0  0  0  0  0  0  0
  -15.6404   28.6830  -22.0252 C   0  0  0  0  0  0  0  0  0  0  0  0
  -19.2029   31.7747  -24.9188 O   0  0  0  0  0  0  0  0  0  0  0  0
  -19.6109   32.6105  -25.9658 C   0  0  0  0  0  0  0  0  0  0  0  0
  -14.6071   28.3203  -22.8137 O   0  0  0  0  0  0  0  0  0  0  0  0
  -16.3397   27.7704  -21.6272 O   0  0  0  0  0  0  0  0  0  0  0  0
  -16.0520   33.2604  -25.2824 O   0  0  0  0  0  0  0  0  0  0  0  0
  -18.2195   33.7347  -25.9103 C   0  0  0  0  0  0  0  0  0  0  0  0
  -18.1546   34.3654  -27.1333 O   0  0  0  0  0  0  0  0  0  0  0  0
  -20.8187   33.2975  -25.7025 N   0  0  0  0  0  0  0  0  0  0  0  0
  1  2  1  0
  2  3  1  0
  3  4  1  0
  4  5  1  0
  2  6  2  0
  5  7  1  0
  5  8  1  0
  7  9  1  0
  8 10  1  0
  2 11  1  0
  9 12  1  0
  8 13  1  0
 13 14  1  0
 12 15  2  0
 12 16  1  0
 10 17  1  0
 10 18  1  0
 14 18  1  0
 18 19  1  0
 14 20  1  0
M  END
