
     RDKit          3D

 20 19  0  0  0  0  0  0  0  0999 V2000
  -19.1726   34.4821  -19.8441 O   0  0  0  0  0  0  0  0  0  0  0  0
  -19.3740   33.3617  -20.4439 P   0  0  0  0  0  0  0  0  0  0  0  0
  -18.4681   32.9629  -21.5208 O   0  0  0  0  0  0  0  0  0  0  0  0
  -18.3319   31.5302  -22.2262 C   0  0  0  0  0  0  0  0  0  0  0  0
  -17.3296   31.6237  -23.2665 C   0  0  0  0  0  0  0  0  0  0  0  0
  -20.7692   33.7289  -21.2084 O   0  0  0  0  0  0  0  0  0  0  0  0
  -19.6293   31.2038  -22.8286 C   0  0  0  0  0  0  0  0  0  0  0  0
  -19.5678   32.1233  -19.5716 O   0  0  0  0  0  0  0  0  0  0  0  0
  -17.6329   32.2613  -24.3148 O   0  0  0  0  0  0  0  0  0  0  0  0
  -17.0030   30.1984  -23.3639 O   0  0  0  0  0  0  0  0  0  0  0  0
  -15.8753   29.7404  -22.5593 C   0  0  0  0  0  0  0  0  0  0  0  0
  -19.6595   30.2489  -23.7063 O   0  0  0  0  0  0  0  0  0  0  0  0
  -17.0476   33.3848  -24.8767 C   0  0  0  0  0  0  0  0  0  0  0  0
  -14.9351   30.5723  -22.2191 O   0  0  0  0  0  0  0  0  0  0  0  0
  -15.8205   28.4185  -22.1767 C   0  0  0  0  0  0  0  0  0  0  0  0
  -17.3107   34.4937  -24.1388 C   0  0  0  0  0  0  0  0  0  0  0  0
  -18.3247   34.8591  -23.7855 O   0  0  0  0  0  0  0  0  0  0  0  0
  -14.6413   27.7289  -22.3798 O   0  0  0  0  0  0  0  0  0  0  0  0
  -16.3410   35.4490  -24.0166 N   0  0  0  0  0  0  0  0  0  0  0  0
  -15.3948   35.3764  -24.8315 O   0  0  0  0  0  0  0  0  0  0  0  0
  1  2  1  0
  2  3  1  0
  3  4  1  0
  4  5  1  0
  2  6  2  0
  4  7  1  0
  2  8  1  0
  5  9  1  0
  5 10  1  0
 10 11  1  0
  7 12  1  0
  9 13  1  0
 11 14  2  0
 11 15  1  0
 13 16  1  0
 16 17  2  0
 15 18  1  0
 16 19  1  0
 19 20  1  0
M  END
