
     RDKit          3D

 20 20  0  0  0  0  0  0  0  0999 V2000
  -20.9725   33.4920  -20.6001 O   0  0  0  0  0  0  0  0  0  0  0  0
  -19.5530   33.0516  -20.6095 P   0  0  0  0  0  0  0  0  0  0  0  0
  -19.2134   32.5649  -21.9961 O   0  0  0  0  0  0  0  0  0  0  0  0
  -18.5077   34.1719  -20.4094 O   0  0  0  0  0  0  0  0  0  0  0  0
  -19.4407   31.9021  -19.6400 O   0  0  0  0  0  0  0  0  0  0  0  0
  -18.6860   31.1499  -22.2922 C   0  0  0  0  0  0  0  0  0  0  0  0
  -17.6268   31.2424  -23.3365 C   0  0  0  0  0  0  0  0  0  0  0  0
  -16.3017   30.7718  -23.0395 O   0  0  0  0  0  0  0  0  0  0  0  0
  -17.5013   32.6049  -24.0593 C   0  0  0  0  0  0  0  0  0  0  0  0
  -17.2063   32.3732  -25.6188 C   0  0  0  0  0  0  0  0  0  0  0  0
  -15.9925   29.6266  -22.1769 C   0  0  0  0  0  0  0  0  0  0  0  0
  -15.4321   28.6739  -22.7127 C   0  0  0  0  0  0  0  0  0  0  0  0
  -18.6566   33.4805  -24.0571 O   0  0  0  0  0  0  0  0  0  0  0  0
  -18.5188   34.2467  -25.2652 C   0  0  0  0  0  0  0  0  0  0  0  0
  -17.6663   33.6327  -26.2267 C   0  0  0  0  0  0  0  0  0  0  0  0
  -15.2693   27.4950  -21.9942 C   0  0  0  0  0  0  0  0  0  0  0  0
  -18.1240   35.6678  -24.8979 C   0  0  0  0  0  0  0  0  0  0  0  0
  -17.9944   31.2063  -26.0312 O   0  0  0  0  0  0  0  0  0  0  0  0
  -18.2221   33.3555  -27.5340 O   0  0  0  0  0  0  0  0  0  0  0  0
  -17.6901   35.8381  -23.7358 O   0  0  0  0  0  0  0  0  0  0  0  0
  1  2  1  0
  2  3  1  0
  2  4  2  0
  2  5  1  0
  3  6  1  0
  6  7  1  0
  7  8  1  0
  7  9  1  0
  9 10  1  0
  8 11  1  0
 11 12  1  0
  9 13  1  0
 13 14  1  0
 10 15  1  0
 14 15  1  0
 12 16  1  0
 14 17  1  0
 10 18  1  0
 15 19  1  0
 17 20  1  0
M  END
