
     RDKit          3D

 20 20  0  0  0  0  0  0  0  0999 V2000
  -20.9725   33.4920  -20.6001 O   0  0  0  0  0  0  0  0  0  0  0  0
  -19.6199   33.3403  -20.7789 P   0  0  0  0  0  0  0  0  0  0  0  0
  -18.9725   34.5095  -20.8228 O   0  0  0  0  0  0  0  0  0  0  0  0
  -19.3784   32.4672  -22.0930 O   0  0  0  0  0  0  0  0  0  0  0  0
  -18.9669   32.4011  -19.6970 O   0  0  0  0  0  0  0  0  0  0  0  0
  -18.3563   35.3316  -21.9912 P   0  0  0  0  0  0  0  0  0  0  0  0
  -17.5411   36.3848  -21.4907 O   0  0  0  0  0  0  0  0  0  0  0  0
  -17.6218   34.4210  -22.8566 O   0  0  0  0  0  0  0  0  0  0  0  0
  -19.7043   35.8467  -22.6441 O   0  0  0  0  0  0  0  0  0  0  0  0
  -16.6540   34.9783  -23.9855 P   0  0  0  0  0  0  0  0  0  0  0  0
  -18.9672   31.0255  -22.2871 C   0  0  0  0  0  0  0  0  0  0  0  0
  -15.4717   35.1179  -23.5832 O   0  0  0  0  0  0  0  0  0  0  0  0
  -17.7396   30.9116  -22.8558 C   0  0  0  0  0  0  0  0  0  0  0  0
  -17.2964   36.2130  -24.5591 O   0  0  0  0  0  0  0  0  0  0  0  0
  -16.7462   33.9173  -25.2380 O   0  0  0  0  0  0  0  0  0  0  0  0
  -17.4770   31.4714  -24.0122 C   0  0  0  0  0  0  0  0  0  0  0  0
  -16.1700   31.9083  -24.6663 C   0  0  0  0  0  0  0  0  0  0  0  0
  -16.1773   32.6914  -25.7052 C   0  0  0  0  0  0  0  0  0  0  0  0
  -16.8510   29.8698  -22.5867 C   0  0  0  0  0  0  0  0  0  0  0  0
  -15.4637   30.1183  -22.5944 O   0  0  0  0  0  0  0  0  0  0  0  0
  1  2  1  0
  2  3  1  0
  2  4  1  0
  2  5  2  0
  3  6  1  0
  6  7  2  0
  6  8  1  0
  6  9  1  0
  8 10  1  0
  4 11  1  0
 10 12  1  0
 11 13  1  0
 10 14  2  0
 10 15  1  0
 13 16  2  0
 16 17  1  0
 15 18  1  0
 17 18  1  0
 13 19  1  0
 19 20  1  0
M  END
