
     RDKit          3D

 15 15  0  0  0  0  0  0  0  0999 V2000
  -14.6184   27.6678  -22.7047 O   0  0  0  0  0  0  0  0  0  0  0  0
  -15.5904   28.2915  -21.9601 C   0  0  0  0  0  0  0  0  0  0  0  0
  -16.4347   27.7946  -21.4719 O   0  0  0  0  0  0  0  0  0  0  0  0
  -15.4916   29.7615  -21.9281 C   0  0  0  0  0  0  0  0  0  0  0  0
  -15.4768   30.5138  -23.0308 C   0  0  0  0  0  0  0  0  0  0  0  0
  -16.7546   31.1244  -23.5137 C   0  0  0  0  0  0  0  0  0  0  0  0
  -17.9762   30.8787  -23.1121 C   0  0  0  0  0  0  0  0  0  0  0  0
  -18.9977   31.5548  -23.6145 C   0  0  0  0  0  0  0  0  0  0  0  0
  -16.6856   32.3622  -24.1543 C   0  0  0  0  0  0  0  0  0  0  0  0
  -17.5947   33.1138  -24.7279 C   0  0  0  0  0  0  0  0  0  0  0  0
  -18.8710   32.6817  -24.3570 C   0  0  0  0  0  0  0  0  0  0  0  0
  -17.3674   34.3107  -25.4434 C   0  0  0  0  0  0  0  0  0  0  0  0
  -16.8590   35.3693  -24.8774 N   0  0  0  0  0  0  0  0  0  0  0  0
  -18.1684   34.6395  -26.5603 O   0  0  0  0  0  0  0  0  0  0  0  0
  -16.7335   36.5823  -25.5914 O   0  0  0  0  0  0  0  0  0  0  0  0
  1  2  1  0
  2  3  2  0
  2  4  1  0
  4  5  1  0
  5  6  1  0
  6  7  1  0
  7  8  2  0
  6  9  2  0
  9 10  1  0
  8 11  1  0
 10 11  2  0
 10 12  1  0
 12 13  1  0
 12 14  2  0
 13 15  1  0
M  END
