
     RDKit          3D

  5  4  0  0  0  0  0  0  0  0999 V2000
  -14.6294   27.8035  -22.6578 O   0  0  0  0  0  0  0  0  0  0  0  0
  -15.6656   28.4060  -21.9423 C   0  0  0  0  0  0  0  0  0  0  0  0
  -15.7642   29.8208  -22.2251 C   0  0  0  0  0  0  0  0  0  0  0  0
  -14.9451   30.2567  -23.2112 O   0  0  0  0  0  0  0  0  0  0  0  0
  -16.7672   30.4783  -21.9492 O   0  0  0  0  0  0  0  0  0  0  0  0
  1  2  1  0
  2  3  1  0
  3  4  1  0
  3  5  2  0
M  END
