
     RDKit          3D

 16 15  0  0  0  0  0  0  0  0999 V2000
  -14.0649   27.5428  -22.6008 O   0  0  0  0  0  0  0  0  0  0  0  0
  -15.3394   28.1061  -22.3453 C   0  0  0  0  0  0  0  0  0  0  0  0
  -15.4870   29.4438  -22.5018 N   0  0  0  0  0  0  0  0  0  0  0  0
  -16.8245   29.9142  -22.3938 C   0  0  0  0  0  0  0  0  0  0  0  0
  -16.8718   31.2611  -22.9813 C   0  0  0  0  0  0  0  0  0  0  0  0
  -18.2046   31.7156  -23.4692 C   0  0  0  0  0  0  0  0  0  0  0  0
  -18.9412   31.9938  -22.3616 O   0  0  0  0  0  0  0  0  0  0  0  0
  -19.0843   31.0187  -24.3043 O   0  0  0  0  0  0  0  0  0  0  0  0
  -15.9419   31.1156  -24.1972 O   0  0  0  0  0  0  0  0  0  0  0  0
  -15.5749   32.4662  -24.6512 C   0  0  0  0  0  0  0  0  0  0  0  0
  -16.6090   33.3087  -25.2390 C   0  0  0  0  0  0  0  0  0  0  0  0
  -16.6715   33.2556  -26.4780 C   0  0  0  0  0  0  0  0  0  0  0  0
  -16.3512   27.3213  -22.1522 O   0  0  0  0  0  0  0  0  0  0  0  0
  -16.2062   34.7248  -24.7837 C   0  0  0  0  0  0  0  0  0  0  0  0
  -16.9756   35.5872  -24.7223 O   0  0  0  0  0  0  0  0  0  0  0  0
  -14.9676   34.9531  -24.9967 O   0  0  0  0  0  0  0  0  0  0  0  0
  1  2  2  0
  2  3  1  0
  3  4  1  0
  4  5  1  0
  5  6  1  0
  6  7  1  0
  6  8  1  0
  5  9  1  0
  9 10  1  0
 10 11  1  0
 11 12  1  0
  2 13  1  0
 11 14  1  0
 14 15  2  0
 14 16  1  0
M  END
