
     RDKit          3D

 17 16  0  0  0  0  0  0  0  0999 V2000
  -16.6967   36.5466  -20.6425 O   0  0  0  0  0  0  0  0  0  0  0  0
  -18.0175   36.9312  -20.2882 P   0  0  0  0  0  0  0  0  0  0  0  0
  -19.0091   35.9202  -21.1708 O   0  0  0  0  0  0  0  0  0  0  0  0
  -18.5994   34.6610  -21.7159 C   0  0  0  0  0  0  0  0  0  0  0  0
  -18.3863   38.3973  -20.6354 O   0  0  0  0  0  0  0  0  0  0  0  0
  -18.9407   34.6457  -23.0567 C   0  0  0  0  0  0  0  0  0  0  0  0
  -18.1472   36.5923  -18.8260 O   0  0  0  0  0  0  0  0  0  0  0  0
  -18.0452   33.9009  -23.8012 O   0  0  0  0  0  0  0  0  0  0  0  0
  -18.1421   33.7855  -25.1574 C   0  0  0  0  0  0  0  0  0  0  0  0
  -17.0976   33.0555  -25.6815 C   0  0  0  0  0  0  0  0  0  0  0  0
  -19.4540   33.6877  -25.6010 O   0  0  0  0  0  0  0  0  0  0  0  0
  -19.9235   34.3675  -26.6397 C   0  0  0  0  0  0  0  0  0  0  0  0
  -15.8561   33.5218  -25.3113 O   0  0  0  0  0  0  0  0  0  0  0  0
  -17.1936   32.7314  -26.9614 C   0  0  0  0  0  0  0  0  0  0  0  0
  -16.5459   31.5635  -27.3138 O   0  0  0  0  0  0  0  0  0  0  0  0
  -16.5871   33.8499  -27.8540 C   0  0  0  0  0  0  0  0  0  0  0  0
  -16.4585   35.0280  -27.2146 O   0  0  0  0  0  0  0  0  0  0  0  0
  1  2  2  0
  2  3  1  0
  3  4  1  0
  2  5  1  0
  4  6  1  0
  2  7  1  0
  6  8  1  0
  8  9  1  0
  9 10  1  0
  9 11  1  0
 11 12  1  0
 10 13  1  0
 10 14  1  0
 14 15  1  0
 14 16  1  0
 16 17  1  0
M  END
