
     RDKit          3D

 17 17  0  0  0  0  0  0  0  0999 V2000
  -16.2832   37.8929  -22.7004 O   0  0  0  0  0  0  0  0  0  0  0  0
  -17.1651   36.8788  -22.3130 P   0  0  0  0  0  0  0  0  0  0  0  0
  -18.5124   37.4358  -22.1129 O   0  0  0  0  0  0  0  0  0  0  0  0
  -17.3549   35.8970  -23.5502 O   0  0  0  0  0  0  0  0  0  0  0  0
  -16.7685   35.9794  -24.8342 C   0  0  0  0  0  0  0  0  0  0  0  0
  -15.9189   34.7800  -25.1334 C   0  0  0  0  0  0  0  0  0  0  0  0
  -16.7418   36.0086  -21.1032 O   0  0  0  0  0  0  0  0  0  0  0  0
  -16.3602   34.1973  -26.3648 C   0  0  0  0  0  0  0  0  0  0  0  0
  -16.0252   34.7970  -27.5858 O   0  0  0  0  0  0  0  0  0  0  0  0
  -17.9366   33.9556  -26.2500 C   0  0  0  0  0  0  0  0  0  0  0  0
  -18.5253   33.5713  -27.5389 O   0  0  0  0  0  0  0  0  0  0  0  0
  -15.7295   33.7822  -24.2629 O   0  0  0  0  0  0  0  0  0  0  0  0
  -16.7663   32.8298  -24.1857 C   0  0  0  0  0  0  0  0  0  0  0  0
  -18.0093   32.8153  -25.2004 C   0  0  0  0  0  0  0  0  0  0  0  0
  -19.1609   32.7441  -24.5492 O   0  0  0  0  0  0  0  0  0  0  0  0
  -16.5691   31.6084  -23.5611 C   0  0  0  0  0  0  0  0  0  0  0  0
  -15.3536   31.1280  -23.5000 O   0  0  0  0  0  0  0  0  0  0  0  0
  1  2  1  0
  2  3  2  0
  2  4  1  0
  4  5  1  0
  5  6  1  0
  2  7  1  0
  6  8  1  0
  8  9  1  0
  8 10  1  0
 10 11  1  0
  6 12  1  0
 12 13  1  0
 10 14  1  0
 13 14  1  0
 14 15  1  0
 13 16  1  0
 16 17  1  0
M  END
