
     RDKit          3D

 10  9  0  0  0  0  0  0  0  0999 V2000
  -14.0649   27.5428  -22.6008 O   0  0  0  0  0  0  0  0  0  0  0  0
  -15.3257   28.2108  -22.2834 C   0  0  0  0  0  0  0  0  0  0  0  0
  -16.2960   27.6059  -21.9913 O   0  0  0  0  0  0  0  0  0  0  0  0
  -15.3299   29.6830  -22.5684 C   0  0  0  0  0  0  0  0  0  0  0  0
  -16.4656   30.3117  -22.2406 N   0  0  0  0  0  0  0  0  0  0  0  0
  -16.9466   31.3116  -23.0684 C   0  0  0  0  0  0  0  0  0  0  0  0
  -18.3983   31.5836  -23.0310 C   0  0  0  0  0  0  0  0  0  0  0  0
  -16.2251   31.7803  -24.0531 O   0  0  0  0  0  0  0  0  0  0  0  0
  -19.1161   30.6818  -22.9069 O   0  0  0  0  0  0  0  0  0  0  0  0
  -18.6472   32.8493  -22.6387 O   0  0  0  0  0  0  0  0  0  0  0  0
  1  2  2  0
  2  3  1  0
  2  4  1  0
  4  5  1  0
  5  6  1  0
  6  7  1  0
  6  8  2  0
  7  9  2  0
  7 10  1  0
M  END
