
     RDKit          3D

 17 17  0  0  0  0  0  0  0  0999 V2000
  -14.5169   27.6502  -22.7320 O   0  0  0  0  0  0  0  0  0  0  0  0
  -15.3895   28.5159  -22.1766 C   0  0  0  0  0  0  0  0  0  0  0  0
  -16.3575   28.0329  -21.6026 O   0  0  0  0  0  0  0  0  0  0  0  0
  -15.3093   29.9141  -22.4506 C   0  0  0  0  0  0  0  0  0  0  0  0
  -16.6627   30.5622  -22.4231 N   0  0  0  0  0  0  0  0  0  0  0  0
  -16.9544   31.5080  -23.3241 C   0  0  0  0  0  0  0  0  0  0  0  0
  -18.3819   31.8024  -23.4226 C   0  0  0  0  0  0  0  0  0  0  0  0
  -18.6952   32.4251  -24.4501 C   0  0  0  0  0  0  0  0  0  0  0  0
  -19.2854   31.1452  -22.5129 C   0  0  0  0  0  0  0  0  0  0  0  0
  -16.1167   32.3368  -23.9607 C   0  0  0  0  0  0  0  0  0  0  0  0
  -14.7192   32.1564  -23.7932 O   0  0  0  0  0  0  0  0  0  0  0  0
  -16.5075   33.1101  -25.0391 C   0  0  0  0  0  0  0  0  0  0  0  0
  -15.5443   33.8688  -25.8518 O   0  0  0  0  0  0  0  0  0  0  0  0
  -17.8423   33.2394  -25.2548 C   0  0  0  0  0  0  0  0  0  0  0  0
  -16.0580   34.8083  -26.8493 C   0  0  0  0  0  0  0  0  0  0  0  0
  -16.0596   34.2727  -28.0895 C   0  0  0  0  0  0  0  0  0  0  0  0
  -19.6603   31.9201  -21.3757 O   0  0  0  0  0  0  0  0  0  0  0  0
  1  2  2  0
  2  3  1  0
  2  4  1  0
  4  5  1  0
  5  6  1  0
  6  7  1  0
  7  8  2  0
  7  9  1  0
  6 10  2  0
 10 11  1  0
 10 12  1  0
 12 13  1  0
  8 14  1  0
 12 14  2  0
 13 15  1  0
 15 16  1  0
  9 17  1  0
M  END
