
     RDKit          3D

 18 18  0  0  0  0  0  0  0  0999 V2000
  -14.5169   27.6502  -22.7320 O   0  0  0  0  0  0  0  0  0  0  0  0
  -15.5210   28.4057  -22.2744 C   0  0  0  0  0  0  0  0  0  0  0  0
  -16.5409   27.8984  -21.8835 O   0  0  0  0  0  0  0  0  0  0  0  0
  -15.5028   29.8498  -22.5415 C   0  0  0  0  0  0  0  0  0  0  0  0
  -16.6301   30.4736  -23.2478 C   0  0  0  0  0  0  0  0  0  0  0  0
  -17.8867   30.2469  -22.7972 N   0  0  0  0  0  0  0  0  0  0  0  0
  -16.3797   31.8885  -23.6155 C   0  0  0  0  0  0  0  0  0  0  0  0
  -15.3953   32.0259  -24.6035 O   0  0  0  0  0  0  0  0  0  0  0  0
  -17.7095   32.4314  -24.2379 C   0  0  0  0  0  0  0  0  0  0  0  0
  -18.7423   31.4628  -23.5871 C   0  0  0  0  0  0  0  0  0  0  0  0
  -17.8651   33.8378  -23.8471 O   0  0  0  0  0  0  0  0  0  0  0  0
  -17.5022   34.8540  -24.7986 P   0  0  0  0  0  0  0  0  0  0  0  0
  -16.9130   34.3396  -25.9763 O   0  0  0  0  0  0  0  0  0  0  0  0
  -18.6514   35.7011  -24.9369 O   0  0  0  0  0  0  0  0  0  0  0  0
  -16.3743   35.7458  -23.9664 O   0  0  0  0  0  0  0  0  0  0  0  0
  -16.8679   34.9456  -27.3153 C   0  0  0  0  0  0  0  0  0  0  0  0
  -16.8555   33.7882  -28.2178 C   0  0  0  0  0  0  0  0  0  0  0  0
  -16.7454   32.4145  -27.4922 C   0  0  0  0  0  0  0  0  0  0  0  0
  1  2  2  0
  2  3  1  0
  2  4  1  0
  4  5  1  0
  5  6  1  0
  5  7  1  0
  7  8  1  0
  7  9  1  0
  6 10  1  0
  9 10  1  0
  9 11  1  0
 11 12  1  0
 12 13  1  0
 12 14  2  0
 12 15  1  0
 13 16  1  0
 16 17  1  0
 17 18  1  0
M  END
