
     RDKit          3D

 11 10  0  0  0  0  0  0  0  0999 V2000
  -16.2832   37.8929  -22.7004 O   0  0  0  0  0  0  0  0  0  0  0  0
  -17.1651   36.8788  -22.3130 P   0  0  0  0  0  0  0  0  0  0  0  0
  -18.5124   37.4358  -22.1129 O   0  0  0  0  0  0  0  0  0  0  0  0
  -17.3549   35.8970  -23.5502 O   0  0  0  0  0  0  0  0  0  0  0  0
  -16.8607   36.0711  -21.0539 O   0  0  0  0  0  0  0  0  0  0  0  0
  -16.7533   35.4696  -24.6422 C   0  0  0  0  0  0  0  0  0  0  0  0
  -15.8418   34.5186  -24.6839 C   0  0  0  0  0  0  0  0  0  0  0  0
  -16.4893   33.2278  -24.4390 C   0  0  0  0  0  0  0  0  0  0  0  0
  -15.1771   34.3416  -25.9690 O   0  0  0  0  0  0  0  0  0  0  0  0
  -15.6643   32.1673  -24.4701 O   0  0  0  0  0  0  0  0  0  0  0  0
  -17.8375   33.1029  -24.4008 O   0  0  0  0  0  0  0  0  0  0  0  0
  1  2  1  0
  2  3  2  0
  2  4  1  0
  2  5  1  0
  4  6  1  0
  6  7  1  0
  7  8  1  0
  7  9  1  0
  8 10  1  0
  8 11  2  0
M  END
