
     RDKit          3D

  3  2  0  0  0  0  0  0  0  0999 V2000
  -14.1045   34.7436  -34.6087 C   0  0  0  0  0  0  0  0  0  0  0  0
  -13.2239   34.4389  -34.4474 C   0  0  0  0  0  0  0  0  0  0  0  0
  -12.2307   33.5131  -34.0626 C   0  0  0  0  0  0  0  0  0  0  0  0
  1  2  3  0
  2  3  1  0
M  END
