
     RDKit          3D

 20 20  0  0  0  0  0  0  0  0999 V2000
  -14.1334   27.4720  -22.9160 O   0  0  0  0  0  0  0  0  0  0  0  0
  -15.3526   27.8256  -22.1240 C   0  0  0  0  0  0  0  0  0  0  0  0
  -15.5737   29.2193  -22.0840 N   0  0  0  0  0  0  0  0  0  0  0  0
  -14.8999   30.1959  -22.6922 C   0  0  0  0  0  0  0  0  0  0  0  0
  -15.8609   31.1350  -23.3443 C   0  0  0  0  0  0  0  0  0  0  0  0
  -15.9437   27.0634  -21.2751 N   0  0  0  0  0  0  0  0  0  0  0  0
  -17.2715   31.1782  -23.0337 C   0  0  0  0  0  0  0  0  0  0  0  0
  -18.0856   32.1651  -23.6033 N   0  0  0  0  0  0  0  0  0  0  0  0
  -18.7229   33.0255  -22.8739 C   0  0  0  0  0  0  0  0  0  0  0  0
  -18.3387   32.1670  -25.0705 C   0  0  0  0  0  0  0  0  0  0  0  0
  -17.4670   32.9395  -25.8419 C   0  0  0  0  0  0  0  0  0  0  0  0
  -17.4314   34.2760  -25.5334 C   0  0  0  0  0  0  0  0  0  0  0  0
  -16.8084   32.3898  -26.9633 C   0  0  0  0  0  0  0  0  0  0  0  0
  -16.5697   35.1562  -26.3325 C   0  0  0  0  0  0  0  0  0  0  0  0
  -15.9010   34.6315  -27.4720 C   0  0  0  0  0  0  0  0  0  0  0  0
  -15.9841   33.3503  -27.7610 C   0  0  0  0  0  0  0  0  0  0  0  0
  -18.7558   34.2616  -23.0787 O   0  0  0  0  0  0  0  0  0  0  0  0
  -19.5627   32.5233  -21.7473 C   0  0  0  0  0  0  0  0  0  0  0  0
  -19.6466   31.3459  -21.3266 O   0  0  0  0  0  0  0  0  0  0  0  0
  -19.8062   33.5066  -20.6957 O   0  0  0  0  0  0  0  0  0  0  0  0
  1  2  2  0
  2  3  1  0
  3  4  1  0
  4  5  1  0
  2  6  1  0
  5  7  1  0
  7  8  1  0
  8  9  1  0
  8 10  1  0
 10 11  1  0
 11 12  1  0
 11 13  2  0
 12 14  2  0
 14 15  1  0
 13 16  1  0
 15 16  2  0
  9 17  2  0
  9 18  1  0
 18 19  2  0
 18 20  1  0
M  END
