
     RDKit          3D

 20 20  0  0  0  0  0  0  0  0999 V2000
  -19.1549   34.3510  -19.7874 O   0  0  0  0  0  0  0  0  0  0  0  0
  -19.4775   33.3353  -20.5774 P   0  0  0  0  0  0  0  0  0  0  0  0
  -20.6923   33.6767  -21.4172 O   0  0  0  0  0  0  0  0  0  0  0  0
  -18.4370   32.9925  -21.7180 O   0  0  0  0  0  0  0  0  0  0  0  0
  -18.6247   31.8429  -22.7136 C   0  0  0  0  0  0  0  0  0  0  0  0
  -19.8785   32.0190  -19.8364 O   0  0  0  0  0  0  0  0  0  0  0  0
  -17.3540   31.4916  -23.3919 C   0  0  0  0  0  0  0  0  0  0  0  0
  -16.3547   30.7865  -22.7738 C   0  0  0  0  0  0  0  0  0  0  0  0
  -16.4756   29.6464  -22.1761 N   0  0  0  0  0  0  0  0  0  0  0  0
  -17.2904   31.9117  -24.7520 C   0  0  0  0  0  0  0  0  0  0  0  0
  -18.4321   32.5611  -25.5551 C   0  0  0  0  0  0  0  0  0  0  0  0
  -15.0238   31.2068  -22.9303 C   0  0  0  0  0  0  0  0  0  0  0  0
  -15.4888   28.9185  -21.7137 O   0  0  0  0  0  0  0  0  0  0  0  0
  -18.0571   33.7658  -26.1316 N   0  0  0  0  0  0  0  0  0  0  0  0
  -17.4981   33.7784  -27.3788 C   0  0  0  0  0  0  0  0  0  0  0  0
  -18.2318   35.0861  -25.4476 C   0  0  0  0  0  0  0  0  0  0  0  0
  -16.2616   34.6806  -27.4802 C   0  0  0  0  0  0  0  0  0  0  0  0
  -16.6097   36.0298  -26.8735 C   0  0  0  0  0  0  0  0  0  0  0  0
  -15.9054   36.9472  -27.3429 O   0  0  0  0  0  0  0  0  0  0  0  0
  -17.0307   35.8820  -25.4928 C   0  0  0  0  0  0  0  0  0  0  0  0
  1  2  1  0
  2  3  2  0
  2  4  1  0
  4  5  1  0
  2  6  1  0
  5  7  1  0
  7  8  1  0
  8  9  2  3
  7 10  2  3
 10 11  1  0
  8 12  1  0
  9 13  1  0
 11 14  1  0
 14 15  1  0
 14 16  1  0
 15 17  1  0
 17 18  1  0
 18 19  1  0
 16 20  1  0
 18 20  1  0
M  END
