
     RDKit          3D

 20 20  0  0  0  0  0  0  0  0999 V2000
  -14.4146   27.5212  -22.6366 O   0  0  0  0  0  0  0  0  0  0  0  0
  -15.5368   28.0451  -21.9218 C   0  0  0  0  0  0  0  0  0  0  0  0
  -16.4164   27.4151  -21.5085 O   0  0  0  0  0  0  0  0  0  0  0  0
  -15.6375   29.5562  -21.9357 C   0  0  0  0  0  0  0  0  0  0  0  0
  -14.8208   30.2491  -22.7406 C   0  0  0  0  0  0  0  0  0  0  0  0
  -13.8620   30.1459  -23.2654 O   0  0  0  0  0  0  0  0  0  0  0  0
  -15.6702   31.4128  -23.3675 N   0  0  0  0  0  0  0  0  0  0  0  0
  -16.8814   31.6710  -23.3585 C   0  0  0  0  0  0  0  0  0  0  0  0
  -17.2769   32.8410  -24.1326 C   0  0  0  0  0  0  0  0  0  0  0  0
  -17.7999   30.8754  -22.7890 O   0  0  0  0  0  0  0  0  0  0  0  0
  -17.0635   32.9643  -25.3418 C   0  0  0  0  0  0  0  0  0  0  0  0
  -17.4694   34.0945  -26.1734 C   0  0  0  0  0  0  0  0  0  0  0  0
  -18.1950   35.0566  -25.5376 C   0  0  0  0  0  0  0  0  0  0  0  0
  -18.6237   36.2399  -26.3179 O   0  0  0  0  0  0  0  0  0  0  0  0
  -18.4452   34.9687  -24.3295 C   0  0  0  0  0  0  0  0  0  0  0  0
  -18.0965   33.9183  -23.5032 C   0  0  0  0  0  0  0  0  0  0  0  0
  -19.3423   36.1761  -23.6682 C   0  0  0  0  0  0  0  0  0  0  0  0
  -19.9276   35.8906  -22.4426 O   0  0  0  0  0  0  0  0  0  0  0  0
  -17.0909   34.1059  -27.6350 C   0  0  0  0  0  0  0  0  0  0  0  0
  -15.9237   34.7358  -27.8808 O   0  0  0  0  0  0  0  0  0  0  0  0
  1  2  2  0
  2  3  1  0
  2  4  1  0
  4  5  1  0
  5  6  2  0
  5  7  1  0
  7  8  1  0
  8  9  1  0
  8 10  2  0
  9 11  1  0
 11 12  2  0
 12 13  1  0
 13 14  1  0
 13 15  2  0
  9 16  2  0
 15 16  1  0
 15 17  1  0
 17 18  1  0
 12 19  1  0
 19 20  1  0
M  END
