
     RDKit          3D

  6  6  0  0  0  0  0  0  0  0999 V2000
  -12.7563   27.0456  -21.8356 C   0  0  0  0  0  0  0  0  0  0  0  0
  -12.1968   26.6595  -20.9072 C   0  0  0  0  0  0  0  0  0  0  0  0
  -11.0008   26.9913  -20.6374 C   0  0  0  0  0  0  0  0  0  0  0  0
  -12.2790   27.7178  -22.7470 C   0  0  0  0  0  0  0  0  0  0  0  0
  -11.0391   28.2918  -22.4371 C   0  0  0  0  0  0  0  0  0  0  0  0
  -10.3928   27.6955  -21.1920 C   0  0  0  0  0  0  0  0  0  0  0  0
  1  2  1  0
  2  3  2  0
  1  4  2  0
  4  5  1  0
  3  6  1  0
  5  6  1  0
M  END
