
     RDKit          3D

  6  6  0  0  0  0  0  0  0  0999 V2000
  -13.4021   34.7446  -34.4816 Cl  0  0  0  0  0  0  0  0  0  0  0  0
  -13.2673   34.1624  -33.0585 C   0  0  0  0  0  0  0  0  0  0  0  0
  -14.3179   33.3570  -32.5735 C   0  0  0  0  0  0  0  0  0  0  0  0
  -12.0095   33.6151  -32.8544 C   0  0  0  0  0  0  0  0  0  0  0  0
  -13.9489   32.5156  -31.7018 C   0  0  0  0  0  0  0  0  0  0  0  0
  -12.4552   32.6412  -31.7501 C   0  0  0  0  0  0  0  0  0  0  0  0
  1  2  1  0
  2  3  1  0
  2  4  1  0
  3  5  1  0
  4  6  1  0
  5  6  1  0
M  END
