
     RDKit          3D

  7  7  0  0  0  0  0  0  0  0999 V2000
  -14.2882   27.6533  -22.1211 O   0  0  0  0  0  0  0  0  0  0  0  0
  -15.2764   28.4024  -22.3101 C   0  0  0  0  0  0  0  0  0  0  0  0
  -15.1317   29.7768  -22.4564 N   0  0  0  0  0  0  0  0  0  0  0  0
  -16.5827   27.9317  -21.9768 N   0  0  0  0  0  0  0  0  0  0  0  0
  -17.5734   28.7839  -22.1738 C   0  0  0  0  0  0  0  0  0  0  0  0
  -16.1213   30.6652  -22.5657 C   0  0  0  0  0  0  0  0  0  0  0  0
  -17.5067   30.1560  -22.4431 C   0  0  0  0  0  0  0  0  0  0  0  0
  1  2  2  0
  2  3  1  0
  2  4  1  0
  4  5  1  0
  3  6  1  0
  5  7  2  0
  6  7  2  0
M  END
