
     RDKit          3D

  8  8  0  0  0  0  0  0  0  0999 V2000
  -12.7563   27.0456  -21.8356 C   0  0  0  0  0  0  0  0  0  0  0  0
  -12.1968   26.6595  -20.9072 C   0  0  0  0  0  0  0  0  0  0  0  0
  -14.1960   27.2541  -21.7612 C   0  0  0  0  0  0  0  0  0  0  0  0
  -10.8850   26.8192  -20.7173 O   0  0  0  0  0  0  0  0  0  0  0  0
  -12.8245   25.9362  -20.0925 C   0  0  0  0  0  0  0  0  0  0  0  0
  -14.6547   27.0979  -20.5807 C   0  0  0  0  0  0  0  0  0  0  0  0
  -14.8857   27.7206  -22.8074 O   0  0  0  0  0  0  0  0  0  0  0  0
  -14.0667   26.3664  -19.6024 C   0  0  0  0  0  0  0  0  0  0  0  0
  1  2  1  0
  1  3  1  0
  2  4  1  0
  2  5  2  0
  3  6  1  0
  3  7  2  0
  5  8  1  0
  6  8  1  0
M  END
