
     RDKit          3D

  8  8  0  0  0  0  0  0  0  0999 V2000
  -13.6017   34.6837  -34.2308 C   0  0  0  0  0  0  0  0  0  0  0  0
  -13.1067   33.6389  -33.8585 O   0  0  0  0  0  0  0  0  0  0  0  0
  -13.5792   33.1987  -32.5973 C   0  0  0  0  0  0  0  0  0  0  0  0
  -12.6916   33.3394  -31.6189 C   0  0  0  0  0  0  0  0  0  0  0  0
  -13.0138   32.8293  -30.3887 C   0  0  0  0  0  0  0  0  0  0  0  0
  -14.3294   32.4559  -30.2133 C   0  0  0  0  0  0  0  0  0  0  0  0
  -14.6501   32.5857  -32.2685 C   0  0  0  0  0  0  0  0  0  0  0  0
  -15.1537   32.2292  -31.1667 C   0  0  0  0  0  0  0  0  0  0  0  0
  1  2  1  0
  2  3  1  0
  3  4  1  0
  4  5  2  0
  5  6  1  0
  3  7  2  0
  6  8  2  0
  7  8  1  0
M  END
