
     RDKit          3D

  9  9  0  0  0  0  0  0  0  0999 V2000
  -14.1045   34.7436  -34.6087 C   0  0  0  0  0  0  0  0  0  0  0  0
  -13.2239   34.4389  -34.4474 C   0  0  0  0  0  0  0  0  0  0  0  0
  -12.0058   34.1189  -33.8811 C   0  0  0  0  0  0  0  0  0  0  0  0
  -12.2652   33.9444  -32.4834 C   0  0  0  0  0  0  0  0  0  0  0  0
  -11.4466   34.3391  -31.5578 C   0  0  0  0  0  0  0  0  0  0  0  0
  -13.7655   33.5995  -32.0630 C   0  0  0  0  0  0  0  0  0  0  0  0
  -13.8975   33.4860  -30.6476 C   0  0  0  0  0  0  0  0  0  0  0  0
  -11.5452   34.2442  -30.1919 C   0  0  0  0  0  0  0  0  0  0  0  0
  -12.9690   34.1742  -29.8472 C   0  0  0  0  0  0  0  0  0  0  0  0
  1  2  3  0
  2  3  1  0
  3  4  1  0
  4  5  2  0
  4  6  1  0
  6  7  2  0
  5  8  1  0
  7  9  1  0
  8  9  2  0
M  END
