
     RDKit          3D

  9  8  0  0  0  0  0  0  0  0999 V2000
  -21.4278   34.1401  -21.0593 O   0  0  0  0  0  0  0  0  0  0  0  0
  -20.1456   34.3162  -21.4098 P   0  0  0  0  0  0  0  0  0  0  0  0
  -19.3132   33.0998  -21.8224 O   0  0  0  0  0  0  0  0  0  0  0  0
  -19.0370   34.7305  -20.2250 O   0  0  0  0  0  0  0  0  0  0  0  0
  -19.8614   35.3105  -22.5621 O   0  0  0  0  0  0  0  0  0  0  0  0
  -19.3897   31.6877  -20.9742 P   0  0  0  0  0  0  0  0  0  0  0  0
  -18.8052   30.7175  -21.7827 O   0  0  0  0  0  0  0  0  0  0  0  0
  -20.7903   31.5506  -20.5218 O   0  0  0  0  0  0  0  0  0  0  0  0
  -18.4889   32.1257  -19.7763 O   0  0  0  0  0  0  0  0  0  0  0  0
  1  2  1  0
  2  3  1  0
  2  4  1  0
  2  5  2  0
  3  6  1  0
  6  7  2  0
  6  8  1  0
  6  9  1  0
M  END
