
     RDKit          3D

 10 10  0  0  0  0  0  0  0  0999 V2000
  -11.7079   26.6909  -21.2040 C   0  0  0  0  0  0  0  0  0  0  0  0
  -12.7683   26.7447  -21.7581 C   0  0  0  0  0  0  0  0  0  0  0  0
  -10.8940   26.2871  -20.7922 N   0  0  0  0  0  0  0  0  0  0  0  0
  -13.8351   26.8769  -21.5383 C   0  0  0  0  0  0  0  0  0  0  0  0
  -12.5362   27.1866  -23.1371 C   0  0  0  0  0  0  0  0  0  0  0  0
  -14.6097   28.0404  -22.0113 C   0  0  0  0  0  0  0  0  0  0  0  0
  -15.7458   28.6582  -21.5742 C   0  0  0  0  0  0  0  0  0  0  0  0
  -16.8074   27.8078  -21.3941 O   0  0  0  0  0  0  0  0  0  0  0  0
  -14.2808   27.6540  -23.3578 C   0  0  0  0  0  0  0  0  0  0  0  0
  -15.7110   29.6996  -21.0909 O   0  0  0  0  0  0  0  0  0  0  0  0
  1  2  1  0
  1  3  3  0
  2  4  1  0
  2  5  1  0
  4  6  1  0
  6  7  1  0
  7  8  1  0
  5  9  1  0
  6  9  1  0
  7 10  2  0
M  END
