
     RDKit          3D

 11 10  0  0  0  0  0  0  0  0999 V2000
  -20.1011   32.5347  -20.0066 O   0  0  0  0  0  0  0  0  0  0  0  0
  -19.7585   33.3767  -20.9331 P   0  0  0  0  0  0  0  0  0  0  0  0
  -20.6652   33.9951  -21.7162 O   0  0  0  0  0  0  0  0  0  0  0  0
  -18.7977   32.4534  -21.9959 O   0  0  0  0  0  0  0  0  0  0  0  0
  -18.8179   32.4547  -23.5994 C   0  0  0  0  0  0  0  0  0  0  0  0
  -18.6970   34.4431  -20.4250 O   0  0  0  0  0  0  0  0  0  0  0  0
  -17.8677   31.6192  -24.1176 C   0  0  0  0  0  0  0  0  0  0  0  0
  -16.5740   31.9528  -23.7484 O   0  0  0  0  0  0  0  0  0  0  0  0
  -15.7181   30.7551  -23.1189 C   0  0  0  0  0  0  0  0  0  0  0  0
  -16.5192   29.9564  -22.2497 C   0  0  0  0  0  0  0  0  0  0  0  0
  -15.6707   28.8207  -21.8338 O   0  0  0  0  0  0  0  0  0  0  0  0
  1  2  1  0
  2  3  2  0
  2  4  1  0
  4  5  1  0
  2  6  1  0
  5  7  1  0
  7  8  1  0
  8  9  1  0
  9 10  1  0
 10 11  1  0
M  END
