
     RDKit          3D

 13 12  0  0  0  0  0  0  0  0999 V2000
  -20.8008   33.6919  -21.1511 O   0  0  0  0  0  0  0  0  0  0  0  0
  -19.5861   33.1068  -20.7937 P   0  0  0  0  0  0  0  0  0  0  0  0
  -18.6775   33.2050  -22.0237 O   0  0  0  0  0  0  0  0  0  0  0  0
  -18.4620   32.0706  -23.0649 C   0  0  0  0  0  0  0  0  0  0  0  0
  -19.7542   31.6580  -20.3892 O   0  0  0  0  0  0  0  0  0  0  0  0
  -17.1765   32.0931  -23.7532 C   0  0  0  0  0  0  0  0  0  0  0  0
  -16.3838   31.0216  -23.5697 O   0  0  0  0  0  0  0  0  0  0  0  0
  -18.8290   33.8231  -19.7669 O   0  0  0  0  0  0  0  0  0  0  0  0
  -16.0938   30.5598  -22.2841 C   0  0  0  0  0  0  0  0  0  0  0  0
  -16.3187   29.1713  -22.0267 C   0  0  0  0  0  0  0  0  0  0  0  0
  -17.2618   32.3953  -25.2461 C   0  0  0  0  0  0  0  0  0  0  0  0
  -15.1266   28.3643  -22.0948 O   0  0  0  0  0  0  0  0  0  0  0  0
  -16.1643   32.3164  -25.8718 O   0  0  0  0  0  0  0  0  0  0  0  0
  1  2  2  0
  2  3  1  0
  3  4  1  0
  2  5  1  0
  4  6  1  0
  6  7  1  0
  2  8  1  0
  7  9  1  0
  9 10  1  0
  6 11  1  0
 10 12  1  0
 11 13  1  0
M  END
