
     RDKit          3D

 14 13  0  0  0  0  0  0  0  0999 V2000
  -21.4278   34.1401  -21.0593 O   0  0  0  0  0  0  0  0  0  0  0  0
  -20.1028   33.7614  -20.7909 P   0  0  0  0  0  0  0  0  0  0  0  0
  -19.2905   33.5840  -22.0218 O   0  0  0  0  0  0  0  0  0  0  0  0
  -18.7082   34.7012  -22.8762 C   0  0  0  0  0  0  0  0  0  0  0  0
  -20.1050   32.5606  -19.8165 O   0  0  0  0  0  0  0  0  0  0  0  0
  -19.2908   34.8382  -20.0372 O   0  0  0  0  0  0  0  0  0  0  0  0
  -17.4280   34.6336  -23.1951 C   0  0  0  0  0  0  0  0  0  0  0  0
  -17.2788   34.1103  -24.6868 C   0  0  0  0  0  0  0  0  0  0  0  0
  -16.7280   32.9512  -24.8673 C   0  0  0  0  0  0  0  0  0  0  0  0
  -16.3463   35.1261  -25.4977 C   0  0  0  0  0  0  0  0  0  0  0  0
  -15.9799   32.4313  -23.8949 O   0  0  0  0  0  0  0  0  0  0  0  0
  -17.4302   31.9694  -25.5466 O   0  0  0  0  0  0  0  0  0  0  0  0
  -15.2066   35.0792  -25.3668 O   0  0  0  0  0  0  0  0  0  0  0  0
  -17.0391   36.0974  -26.1251 O   0  0  0  0  0  0  0  0  0  0  0  0
  1  2  2  0
  2  3  1  0
  3  4  1  0
  2  5  1  0
  2  6  1  0
  4  7  1  0
  7  8  1  0
  8  9  1  0
  8 10  1  0
  9 11  2  0
  9 12  1  0
 10 13  1  0
 10 14  2  0
M  END
