
     RDKit          3D

 14 13  0  0  0  0  0  0  0  0999 V2000
  -20.8261   33.4103  -20.5517 O   0  0  0  0  0  0  0  0  0  0  0  0
  -19.4073   33.0674  -20.6698 P   0  0  0  0  0  0  0  0  0  0  0  0
  -19.2905   32.8004  -22.1205 O   0  0  0  0  0  0  0  0  0  0  0  0
  -19.2673   31.9473  -19.7689 O   0  0  0  0  0  0  0  0  0  0  0  0
  -18.5999   33.6642  -23.1295 C   0  0  0  0  0  0  0  0  0  0  0  0
  -18.5044   34.3133  -20.3961 O   0  0  0  0  0  0  0  0  0  0  0  0
  -17.9334   33.0180  -24.1035 C   0  0  0  0  0  0  0  0  0  0  0  0
  -17.5903   31.7398  -23.8863 C   0  0  0  0  0  0  0  0  0  0  0  0
  -18.6670   33.2343  -25.4029 O   0  0  0  0  0  0  0  0  0  0  0  0
  -16.2448   31.5134  -23.6908 O   0  0  0  0  0  0  0  0  0  0  0  0
  -15.7562   30.5824  -22.4944 P   0  0  0  0  0  0  0  0  0  0  0  0
  -16.7420   30.6719  -21.4453 O   0  0  0  0  0  0  0  0  0  0  0  0
  -15.3910   29.1766  -22.8983 O   0  0  0  0  0  0  0  0  0  0  0  0
  -14.3021   31.1984  -22.3339 O   0  0  0  0  0  0  0  0  0  0  0  0
  1  2  1  0
  2  3  1  0
  2  4  2  0
  3  5  1  0
  2  6  1  0
  5  7  1  0
  7  8  1  0
  7  9  1  0
  8 10  1  0
 10 11  1  0
 11 12  1  0
 11 13  2  0
 11 14  1  0
M  END
