
     RDKit          3D

 15 15  0  0  0  0  0  0  0  0999 V2000
  -14.2882   27.6533  -22.1211 O   0  0  0  0  0  0  0  0  0  0  0  0
  -15.2764   28.4024  -22.3101 C   0  0  0  0  0  0  0  0  0  0  0  0
  -15.1317   29.7768  -22.4564 N   0  0  0  0  0  0  0  0  0  0  0  0
  -13.9383   30.3372  -22.8446 C   0  0  0  0  0  0  0  0  0  0  0  0
  -16.5697   27.9271  -22.2048 N   0  0  0  0  0  0  0  0  0  0  0  0
  -14.2572   31.5909  -23.4217 C   0  0  0  0  0  0  0  0  0  0  0  0
  -15.7567   31.8343  -23.4933 C   0  0  0  0  0  0  0  0  0  0  0  0
  -16.4395   30.4815  -22.8617 C   0  0  0  0  0  0  0  0  0  0  0  0
  -16.5840   32.7882  -23.9694 C   0  0  0  0  0  0  0  0  0  0  0  0
  -15.8154   33.7811  -24.6452 N   0  0  0  0  0  0  0  0  0  0  0  0
  -16.2243   34.3189  -25.9339 C   0  0  0  0  0  0  0  0  0  0  0  0
  -17.8149   32.5317  -24.4708 O   0  0  0  0  0  0  0  0  0  0  0  0
  -16.1902   35.8461  -25.8411 C   0  0  0  0  0  0  0  0  0  0  0  0
  -16.2632   36.4292  -27.0198 O   0  0  0  0  0  0  0  0  0  0  0  0
  -16.3698   36.3380  -24.7881 O   0  0  0  0  0  0  0  0  0  0  0  0
  1  2  2  0
  2  3  1  0
  3  4  1  0
  2  5  1  0
  4  6  2  0
  6  7  1  0
  3  8  1  0
  7  8  2  0
  7  9  1  0
  9 10  1  0
 10 11  1  0
  9 12  2  0
 11 13  1  0
 13 14  2  0
 13 15  1  0
M  END
