
     RDKit          3D

 16 15  0  0  0  0  0  0  0  0999 V2000
  -20.8261   33.4103  -20.5517 O   0  0  0  0  0  0  0  0  0  0  0  0
  -19.4073   33.0674  -20.6698 P   0  0  0  0  0  0  0  0  0  0  0  0
  -19.2905   32.8004  -22.1205 O   0  0  0  0  0  0  0  0  0  0  0  0
  -19.2673   31.9473  -19.7689 O   0  0  0  0  0  0  0  0  0  0  0  0
  -18.5999   33.6642  -23.1295 C   0  0  0  0  0  0  0  0  0  0  0  0
  -18.5044   34.3133  -20.3961 O   0  0  0  0  0  0  0  0  0  0  0  0
  -17.9334   33.0180  -24.1035 C   0  0  0  0  0  0  0  0  0  0  0  0
  -17.5903   31.7398  -23.8863 C   0  0  0  0  0  0  0  0  0  0  0  0
  -18.6670   33.2343  -25.4029 O   0  0  0  0  0  0  0  0  0  0  0  0
  -17.9826   33.1269  -26.5393 C   0  0  0  0  0  0  0  0  0  0  0  0
  -16.2401   31.4767  -23.7548 O   0  0  0  0  0  0  0  0  0  0  0  0
  -15.7306   30.5133  -22.7572 C   0  0  0  0  0  0  0  0  0  0  0  0
  -16.7326   33.8823  -26.5598 C   0  0  0  0  0  0  0  0  0  0  0  0
  -16.3719   29.4633  -22.4948 N   0  0  0  0  0  0  0  0  0  0  0  0
  -15.9085   33.5526  -27.5058 O   0  0  0  0  0  0  0  0  0  0  0  0
  -15.8704   28.5296  -21.6324 O   0  0  0  0  0  0  0  0  0  0  0  0
  1  2  1  0
  2  3  1  0
  2  4  2  0
  3  5  1  0
  2  6  1  0
  5  7  1  0
  7  8  1  0
  7  9  1  0
  9 10  1  0
  8 11  1  0
 11 12  1  0
 10 13  1  0
 12 14  2  3
 13 15  1  0
 14 16  1  0
M  END
