
     RDKit          3D

  4  3  0  0  0  0  0  0  0  0999 V2000
  -11.7079   26.6909  -21.2040 O   0  0  0  0  0  0  0  0  0  0  0  0
  -10.5925   26.4309  -20.9429 C   0  0  0  0  0  0  0  0  0  0  0  0
   -9.7954   27.4459  -20.7599 O   0  0  0  0  0  0  0  0  0  0  0  0
   -9.9342   25.2329  -21.1021 N   0  0  0  0  0  0  0  0  0  0  0  0
  1  2  2  0
  2  3  1  0
  2  4  1  0
M  END
