
     RDKit          3D

 16 15  0  0  0  0  0  0  0  0999 V2000
  -14.2379   27.3191  -22.2686 O   0  0  0  0  0  0  0  0  0  0  0  0
  -15.3668   28.0844  -22.1387 C   0  0  0  0  0  0  0  0  0  0  0  0
  -15.2210   29.4693  -22.3607 N   0  0  0  0  0  0  0  0  0  0  0  0
  -16.5815   27.6139  -21.8786 N   0  0  0  0  0  0  0  0  0  0  0  0
  -14.3067   30.1576  -23.0137 C   0  0  0  0  0  0  0  0  0  0  0  0
  -14.8300   31.5016  -23.3635 C   0  0  0  0  0  0  0  0  0  0  0  0
  -14.2792   32.1934  -24.3283 O   0  0  0  0  0  0  0  0  0  0  0  0
  -16.4039   31.4472  -23.7015 C   0  0  0  0  0  0  0  0  0  0  0  0
  -17.2463   31.2700  -22.7809 O   0  0  0  0  0  0  0  0  0  0  0  0
  -18.6825   30.9121  -23.0909 C   0  0  0  0  0  0  0  0  0  0  0  0
  -19.5166   31.8811  -22.3363 C   0  0  0  0  0  0  0  0  0  0  0  0
  -19.1355   33.2189  -22.5551 O   0  0  0  0  0  0  0  0  0  0  0  0
  -19.4060   34.3750  -21.5198 P   0  0  0  0  0  0  0  0  0  0  0  0
  -19.0617   33.8454  -20.2886 O   0  0  0  0  0  0  0  0  0  0  0  0
  -18.8111   35.5183  -22.0748 O   0  0  0  0  0  0  0  0  0  0  0  0
  -20.9300   34.4207  -21.4491 O   0  0  0  0  0  0  0  0  0  0  0  0
  1  2  2  0
  2  3  1  0
  2  4  1  0
  3  5  1  0
  5  6  1  0
  6  7  1  0
  6  8  1  0
  8  9  1  0
  9 10  1  0
 10 11  1  0
 11 12  1  0
 12 13  1  0
 13 14  1  0
 13 15  2  0
 13 16  1  0
M  END
