
     RDKit          3D

 16 15  0  0  0  0  0  0  0  0999 V2000
  -14.4146   27.5212  -22.6366 O   0  0  0  0  0  0  0  0  0  0  0  0
  -15.5368   28.0451  -21.9218 C   0  0  0  0  0  0  0  0  0  0  0  0
  -16.4164   27.4151  -21.5085 O   0  0  0  0  0  0  0  0  0  0  0  0
  -15.6375   29.5562  -21.9357 C   0  0  0  0  0  0  0  0  0  0  0  0
  -14.8208   30.2491  -22.7406 C   0  0  0  0  0  0  0  0  0  0  0  0
  -13.8620   30.1459  -23.2654 O   0  0  0  0  0  0  0  0  0  0  0  0
  -15.6702   31.4128  -23.3675 N   0  0  0  0  0  0  0  0  0  0  0  0
  -16.8814   31.6710  -23.3585 C   0  0  0  0  0  0  0  0  0  0  0  0
  -17.8962   30.9405  -22.8009 O   0  0  0  0  0  0  0  0  0  0  0  0
  -17.3705   32.7665  -24.3252 C   0  0  0  0  0  0  0  0  0  0  0  0
  -18.6649   32.9774  -24.4402 O   0  0  0  0  0  0  0  0  0  0  0  0
  -16.4735   33.5760  -25.0149 C   0  0  0  0  0  0  0  0  0  0  0  0
  -16.1040   34.7011  -24.3550 O   0  0  0  0  0  0  0  0  0  0  0  0
  -16.7580   33.8760  -26.4755 C   0  0  0  0  0  0  0  0  0  0  0  0
  -16.6165   35.2629  -26.7858 C   0  0  0  0  0  0  0  0  0  0  0  0
  -16.5623   35.7424  -27.9716 C   0  0  0  0  0  0  0  0  0  0  0  0
  1  2  2  0
  2  3  1  0
  2  4  1  0
  4  5  1  0
  5  6  2  0
  5  7  1  0
  7  8  1  0
  8  9  2  0
  8 10  1  0
 10 11  1  0
 10 12  1  0
 12 13  1  0
 12 14  1  0
 14 15  1  0
 15 16  1  0
M  END
