
     RDKit          3D

 17 17  0  0  0  0  0  0  0  0999 V2000
  -14.4146   27.5212  -22.6366 O   0  0  0  0  0  0  0  0  0  0  0  0
  -15.5368   28.0451  -21.9218 C   0  0  0  0  0  0  0  0  0  0  0  0
  -16.4164   27.4151  -21.5085 O   0  0  0  0  0  0  0  0  0  0  0  0
  -15.6375   29.5562  -21.9357 C   0  0  0  0  0  0  0  0  0  0  0  0
  -14.8208   30.2491  -22.7406 C   0  0  0  0  0  0  0  0  0  0  0  0
  -13.8620   30.1459  -23.2654 O   0  0  0  0  0  0  0  0  0  0  0  0
  -15.6702   31.4128  -23.3675 N   0  0  0  0  0  0  0  0  0  0  0  0
  -16.8814   31.6710  -23.3585 C   0  0  0  0  0  0  0  0  0  0  0  0
  -17.8962   30.9405  -22.8009 O   0  0  0  0  0  0  0  0  0  0  0  0
  -17.3705   32.7665  -24.3252 C   0  0  0  0  0  0  0  0  0  0  0  0
  -18.6649   32.9774  -24.4402 N   0  0  0  0  0  0  0  0  0  0  0  0
  -16.7892   32.5532  -25.7079 C   0  0  0  0  0  0  0  0  0  0  0  0
  -16.9105   33.7215  -26.5802 C   0  0  0  0  0  0  0  0  0  0  0  0
  -19.1752   34.1861  -24.9853 C   0  0  0  0  0  0  0  0  0  0  0  0
  -18.4883   34.2476  -26.5037 C   0  0  0  0  0  0  0  0  0  0  0  0
  -16.1559   34.9035  -26.0559 C   0  0  0  0  0  0  0  0  0  0  0  0
  -16.5919   33.4190  -27.9640 C   0  0  0  0  0  0  0  0  0  0  0  0
  1  2  2  0
  2  3  1  0
  2  4  1  0
  4  5  1  0
  5  6  2  0
  5  7  1  0
  7  8  1  0
  8  9  2  0
  8 10  1  0
 10 11  1  0
 10 12  1  0
 12 13  1  0
 11 14  1  0
 13 15  1  0
 14 15  1  0
 13 16  1  0
 13 17  1  0
M  END
