
     RDKit          3D

 18 17  0  0  0  0  0  0  0  0999 V2000
  -12.6507   27.1202  -21.7718 C   0  0  0  0  0  0  0  0  0  0  0  0
  -11.9694   26.7569  -20.9615 C   0  0  0  0  0  0  0  0  0  0  0  0
  -13.9424   27.2332  -21.4321 C   0  0  0  0  0  0  0  0  0  0  0  0
  -14.6722   26.8454  -20.6665 C   0  0  0  0  0  0  0  0  0  0  0  0
  -10.7313   27.1285  -20.8430 O   0  0  0  0  0  0  0  0  0  0  0  0
  -14.7203   28.2638  -22.3581 C   0  0  0  0  0  0  0  0  0  0  0  0
  -14.2872   29.1743  -22.9896 O   0  0  0  0  0  0  0  0  0  0  0  0
  -12.4140   25.8129  -20.2089 O   0  0  0  0  0  0  0  0  0  0  0  0
  -16.0465   28.1049  -22.2539 N   0  0  0  0  0  0  0  0  0  0  0  0
  -16.9927   28.5021  -23.0296 C   0  0  0  0  0  0  0  0  0  0  0  0
  -17.3360   29.9798  -22.9411 C   0  0  0  0  0  0  0  0  0  0  0  0
  -18.5800   30.4673  -22.9819 C   0  0  0  0  0  0  0  0  0  0  0  0
  -18.6308   31.9476  -22.6945 C   0  0  0  0  0  0  0  0  0  0  0  0
  -19.2039   32.3190  -21.4300 C   0  0  0  0  0  0  0  0  0  0  0  0
  -19.4549   33.6123  -21.1038 P   0  0  0  0  0  0  0  0  0  0  0  0
  -18.6156   34.1791  -20.0957 O   0  0  0  0  0  0  0  0  0  0  0  0
  -20.9490   33.8211  -20.6438 O   0  0  0  0  0  0  0  0  0  0  0  0
  -19.1367   34.4696  -22.2951 O   0  0  0  0  0  0  0  0  0  0  0  0
  1  2  1  0
  1  3  1  0
  3  4  2  0
  2  5  1  0
  3  6  1  0
  6  7  2  0
  2  8  2  0
  6  9  1  0
  9 10  1  0
 10 11  1  0
 11 12  1  0
 12 13  1  0
 13 14  1  0
 14 15  1  0
 15 16  1  0
 15 17  1  0
 15 18  2  0
M  END
