
     RDKit          3D

 18 20  0  0  0  0  0  0  0  0999 V2000
  -12.4489   26.9755  -22.1841 C   0  0  0  0  0  0  0  0  0  0  0  0
  -11.8525   26.5576  -21.1440 C   0  0  0  0  0  0  0  0  0  0  0  0
  -10.5589   27.0498  -20.8805 C   0  0  0  0  0  0  0  0  0  0  0  0
  -11.9778   27.7160  -23.0078 C   0  0  0  0  0  0  0  0  0  0  0  0
   -9.9576   27.8777  -21.7454 C   0  0  0  0  0  0  0  0  0  0  0  0
  -10.6933   28.2991  -22.8420 C   0  0  0  0  0  0  0  0  0  0  0  0
  -12.7529   28.2827  -24.0705 C   0  0  0  0  0  0  0  0  0  0  0  0
  -13.8455   28.9250  -23.4792 C   0  0  0  0  0  0  0  0  0  0  0  0
  -13.8528   30.1700  -23.4470 C   0  0  0  0  0  0  0  0  0  0  0  0
  -11.7090   28.8054  -24.5585 C   0  0  0  0  0  0  0  0  0  0  0  0
  -15.0710   30.7726  -23.1953 C   0  0  0  0  0  0  0  0  0  0  0  0
  -14.9892   28.6174  -23.9785 C   0  0  0  0  0  0  0  0  0  0  0  0
  -15.9364   29.6230  -23.4945 C   0  0  0  0  0  0  0  0  0  0  0  0
  -11.7112   29.1160  -25.8926 C   0  0  0  0  0  0  0  0  0  0  0  0
  -15.3535   31.0018  -21.8981 C   0  0  0  0  0  0  0  0  0  0  0  0
  -16.5130   29.1637  -22.3200 C   0  0  0  0  0  0  0  0  0  0  0  0
  -15.9398   29.8424  -21.3513 C   0  0  0  0  0  0  0  0  0  0  0  0
  -11.5307   28.0138  -25.9478 C   0  0  0  0  0  0  0  0  0  0  0  0
  1  2  1  0
  2  3  2  0
  1  4  2  0
  3  5  1  0
  4  6  1  0
  5  6  2  0
  4  7  1  0
  7  8  1  0
  8  9  1  0
  7 10  1  0
  9 11  1  0
  8 12  1  0
 11 13  1  0
 12 13  1  0
 11 15  1  0
 13 16  1  0
 15 17  1  0
 16 17  1  0
 10 18  1  0
 14 18  1  0
M  END
