
     RDKit          3D

 19 19  0  0  0  0  0  0  0  0999 V2000
  -14.1334   27.4720  -22.9160 O   0  0  0  0  0  0  0  0  0  0  0  0
  -15.2171   27.8524  -21.9842 C   0  0  0  0  0  0  0  0  0  0  0  0
  -15.5782   29.2000  -22.0555 N   0  0  0  0  0  0  0  0  0  0  0  0
  -16.1161   27.0658  -21.4141 N   0  0  0  0  0  0  0  0  0  0  0  0
  -14.9419   30.2477  -22.6256 C   0  0  0  0  0  0  0  0  0  0  0  0
  -15.8755   31.2440  -23.2064 C   0  0  0  0  0  0  0  0  0  0  0  0
  -17.2579   31.2431  -22.9227 C   0  0  0  0  0  0  0  0  0  0  0  0
  -18.0700   32.2357  -23.4754 N   0  0  0  0  0  0  0  0  0  0  0  0
  -18.8106   33.0128  -22.6360 C   0  0  0  0  0  0  0  0  0  0  0  0
  -18.6731   31.9021  -24.8418 C   0  0  0  0  0  0  0  0  0  0  0  0
  -18.6500   34.3698  -22.8547 C   0  0  0  0  0  0  0  0  0  0  0  0
  -19.5111   32.5495  -21.4923 C   0  0  0  0  0  0  0  0  0  0  0  0
  -19.6512   31.2510  -21.0831 O   0  0  0  0  0  0  0  0  0  0  0  0
  -19.3051   35.2690  -22.0036 C   0  0  0  0  0  0  0  0  0  0  0  0
  -19.8768   33.4279  -20.3684 C   0  0  0  0  0  0  0  0  0  0  0  0
  -19.7734   34.8454  -20.7613 O   0  0  0  0  0  0  0  0  0  0  0  0
  -19.1793   36.8020  -22.1637 C   0  0  0  0  0  0  0  0  0  0  0  0
  -19.8679   33.2485  -19.2132 O   0  0  0  0  0  0  0  0  0  0  0  0
  -18.1384   37.3597  -21.5957 O   0  0  0  0  0  0  0  0  0  0  0  0
  1  2  2  0
  2  3  1  0
  2  4  1  0
  3  5  1  0
  5  6  1  0
  6  7  1  0
  7  8  1  0
  8  9  1  0
  8 10  1  0
  9 11  1  0
  9 12  2  0
 12 13  1  0
 11 14  2  0
 12 15  1  0
 14 16  1  0
 15 16  1  0
 14 17  1  0
 15 18  2  0
 17 19  1  0
M  END
