
     RDKit          3D

 19 18  0  0  0  0  0  0  0  0999 V2000
  -20.7837   34.9086  -21.8338 O   0  0  0  0  0  0  0  0  0  0  0  0
  -19.9065   33.9506  -21.1786 P   0  0  0  0  0  0  0  0  0  0  0  0
  -19.3959   34.4119  -20.0202 O   0  0  0  0  0  0  0  0  0  0  0  0
  -18.7641   33.4837  -22.2909 O   0  0  0  0  0  0  0  0  0  0  0  0
  -18.4078   32.1676  -22.7706 C   0  0  0  0  0  0  0  0  0  0  0  0
  -20.5258   32.6255  -20.7986 O   0  0  0  0  0  0  0  0  0  0  0  0
  -17.4755   32.1536  -23.7371 C   0  0  0  0  0  0  0  0  0  0  0  0
  -18.7537   31.1785  -22.0661 O   0  0  0  0  0  0  0  0  0  0  0  0
  -18.0682   32.3896  -24.9753 C   0  0  0  0  0  0  0  0  0  0  0  0
  -16.8742   30.7571  -23.7054 O   0  0  0  0  0  0  0  0  0  0  0  0
  -17.7209   33.4454  -25.8359 C   0  0  0  0  0  0  0  0  0  0  0  0
  -15.8315   30.5274  -22.7238 C   0  0  0  0  0  0  0  0  0  0  0  0
  -17.1744   33.1867  -27.0658 C   0  0  0  0  0  0  0  0  0  0  0  0
  -18.8695   34.4302  -26.0091 O   0  0  0  0  0  0  0  0  0  0  0  0
  -16.5545   34.3408  -27.7472 C   0  0  0  0  0  0  0  0  0  0  0  0
  -16.4284   35.4792  -27.0285 C   0  0  0  0  0  0  0  0  0  0  0  0
  -15.8052   29.1850  -22.2537 C   0  0  0  0  0  0  0  0  0  0  0  0
  -14.9501   28.2912  -22.6774 O   0  0  0  0  0  0  0  0  0  0  0  0
  -16.7568   28.7127  -21.5826 O   0  0  0  0  0  0  0  0  0  0  0  0
  1  2  2  0
  2  3  1  0
  2  4  1  0
  4  5  1  0
  2  6  1  0
  5  7  1  0
  5  8  2  0
  7  9  1  0
  7 10  1  0
  9 11  1  0
 10 12  1  0
 11 13  1  0
 11 14  1  0
 13 15  1  0
 15 16  1  0
 12 17  1  0
 17 18  2  0
 17 19  1  0
M  END
