
     RDKit          3D

 19 19  0  0  0  0  0  0  0  0999 V2000
  -13.0331   27.3913  -22.0810 O   0  0  0  0  0  0  0  0  0  0  0  0
  -14.2692   27.5574  -22.0045 C   0  0  0  0  0  0  0  0  0  0  0  0
  -15.2121   26.9705  -21.5377 N   0  0  0  0  0  0  0  0  0  0  0  0
  -14.7058   28.9222  -22.7614 N   0  0  0  0  0  0  0  0  0  0  0  0
  -15.4741   29.8718  -22.1283 C   0  0  0  0  0  0  0  0  0  0  0  0
  -16.0782   29.8403  -21.1537 O   0  0  0  0  0  0  0  0  0  0  0  0
  -15.8006   31.0236  -23.1033 C   0  0  0  0  0  0  0  0  0  0  0  0
  -14.8799   31.4051  -24.0048 O   0  0  0  0  0  0  0  0  0  0  0  0
  -17.1417   31.4464  -23.3699 N   0  0  0  0  0  0  0  0  0  0  0  0
  -18.1927   30.9618  -22.5343 C   0  0  0  0  0  0  0  0  0  0  0  0
  -19.0152   32.0544  -22.1311 C   0  0  0  0  0  0  0  0  0  0  0  0
  -17.2459   32.6758  -24.0682 C   0  0  0  0  0  0  0  0  0  0  0  0
  -18.6151   33.3337  -22.3419 C   0  0  0  0  0  0  0  0  0  0  0  0
  -19.3363   31.7967  -20.6565 O   0  0  0  0  0  0  0  0  0  0  0  0
  -17.9172   33.6896  -23.4048 C   0  0  0  0  0  0  0  0  0  0  0  0
  -17.6757   35.0507  -23.8524 C   0  0  0  0  0  0  0  0  0  0  0  0
  -18.9190   34.3279  -21.2847 O   0  0  0  0  0  0  0  0  0  0  0  0
  -18.5052   35.8175  -23.9821 O   0  0  0  0  0  0  0  0  0  0  0  0
  -16.3606   35.5071  -23.8653 O   0  0  0  0  0  0  0  0  0  0  0  0
  1  2  2  0
  2  3  1  0
  2  4  1  0
  4  5  1  0
  5  6  2  0
  5  7  1  0
  7  8  2  0
  7  9  1  0
  9 10  1  0
 10 11  1  0
  9 12  1  0
 11 13  1  0
 11 14  1  0
 12 15  1  0
 13 15  2  0
 15 16  1  0
 13 17  1  0
 16 18  2  0
 16 19  1  0
M  END
