
     RDKit          3D

  4  3  0  0  0  0  0  0  0  0999 V2000
  -14.2576   27.8063  -22.8285 O   0  0  0  0  0  0  0  0  0  0  0  0
  -15.4499   28.4194  -22.2700 C   0  0  0  0  0  0  0  0  0  0  0  0
  -15.5645   29.7160  -22.3604 C   0  0  0  0  0  0  0  0  0  0  0  0
  -15.2607   30.4522  -23.3862 O   0  0  0  0  0  0  0  0  0  0  0  0
  1  2  2  0
  2  3  1  0
  3  4  1  0
M  END
