
     RDKit          3D

 15 14  0  0  0  0  0  0  0  0999 V2000
  -14.3426   27.5557  -22.6185 O   0  0  0  0  0  0  0  0  0  0  0  0
  -15.4051   28.3464  -22.2427 C   0  0  0  0  0  0  0  0  0  0  0  0
  -15.3545   29.6503  -22.4964 N   0  0  0  0  0  0  0  0  0  0  0  0
  -14.5059   30.3751  -23.1926 C   0  0  0  0  0  0  0  0  0  0  0  0
  -15.3327   31.4238  -23.8715 C   0  0  0  0  0  0  0  0  0  0  0  0
  -16.7683   31.4826  -23.8190 C   0  0  0  0  0  0  0  0  0  0  0  0
  -17.4156   32.5418  -24.4757 N   0  0  0  0  0  0  0  0  0  0  0  0
  -18.5626   32.3751  -24.9867 C   0  0  0  0  0  0  0  0  0  0  0  0
  -16.4969   33.4924  -25.2173 C   0  0  0  0  0  0  0  0  0  0  0  0
  -16.3690   34.7875  -24.6597 C   0  0  0  0  0  0  0  0  0  0  0  0
  -15.4382   35.3092  -24.3670 O   0  0  0  0  0  0  0  0  0  0  0  0
  -18.7751   32.0548  -26.2519 O   0  0  0  0  0  0  0  0  0  0  0  0
  -17.5008   35.4726  -24.4704 O   0  0  0  0  0  0  0  0  0  0  0  0
  -19.6840   32.0536  -24.0618 C   0  0  0  0  0  0  0  0  0  0  0  0
  -19.4411   32.4359  -22.8104 O   0  0  0  0  0  0  0  0  0  0  0  0
  1  2  2  0
  2  3  1  0
  3  4  1  0
  4  5  1  0
  5  6  1  0
  6  7  1  0
  7  8  1  0
  7  9  1  0
  9 10  1  0
 10 11  2  0
  8 12  2  0
 10 13  1  0
  8 14  1  0
 14 15  1  0
M  END
