
     RDKit          3D

 15 14  0  0  0  0  0  0  0  0999 V2000
  -14.5731   27.9253  -22.5828 O   0  0  0  0  0  0  0  0  0  0  0  0
  -15.7726   28.3984  -21.9850 C   0  0  0  0  0  0  0  0  0  0  0  0
  -16.6032   27.7041  -21.5919 O   0  0  0  0  0  0  0  0  0  0  0  0
  -16.0698   29.8194  -22.2707 C   0  0  0  0  0  0  0  0  0  0  0  0
  -16.2727   30.3326  -23.5277 C   0  0  0  0  0  0  0  0  0  0  0  0
  -16.7166   31.7436  -23.5806 C   0  0  0  0  0  0  0  0  0  0  0  0
  -16.1577   32.3516  -24.7263 C   0  0  0  0  0  0  0  0  0  0  0  0
  -18.2407   31.6975  -23.6488 C   0  0  0  0  0  0  0  0  0  0  0  0
  -18.8250   32.6852  -22.9071 O   0  0  0  0  0  0  0  0  0  0  0  0
  -15.5916   33.6419  -24.5314 C   0  0  0  0  0  0  0  0  0  0  0  0
  -15.1175   31.6575  -25.3229 O   0  0  0  0  0  0  0  0  0  0  0  0
  -18.8614   30.8817  -24.2962 O   0  0  0  0  0  0  0  0  0  0  0  0
  -16.1142   34.6450  -25.4583 C   0  0  0  0  0  0  0  0  0  0  0  0
  -16.2882   34.1384  -26.8210 N   0  0  0  0  0  0  0  0  0  0  0  0
  -16.2846   34.9936  -27.9399 C   0  0  0  0  0  0  0  0  0  0  0  0
  1  2  2  0
  2  3  1  0
  2  4  1  0
  4  5  1  0
  5  6  1  0
  6  7  1  0
  6  8  1  0
  8  9  1  0
  7 10  1  0
  7 11  1  0
  8 12  2  0
 10 13  1  0
 13 14  1  0
 14 15  1  0
M  END
