
     RDKit          3D

 15 15  0  0  0  0  0  0  0  0999 V2000
  -14.0649   27.5428  -22.6008 O   0  0  0  0  0  0  0  0  0  0  0  0
  -15.3394   28.1061  -22.3453 C   0  0  0  0  0  0  0  0  0  0  0  0
  -15.4870   29.4438  -22.5018 N   0  0  0  0  0  0  0  0  0  0  0  0
  -16.8245   29.9142  -22.3938 C   0  0  0  0  0  0  0  0  0  0  0  0
  -16.8718   31.2611  -22.9813 C   0  0  0  0  0  0  0  0  0  0  0  0
  -18.0771   31.9634  -22.8951 C   0  0  0  0  0  0  0  0  0  0  0  0
  -15.8883   31.6238  -23.9461 C   0  0  0  0  0  0  0  0  0  0  0  0
  -19.0821   31.4769  -21.9969 O   0  0  0  0  0  0  0  0  0  0  0  0
  -18.2923   33.1425  -23.4658 C   0  0  0  0  0  0  0  0  0  0  0  0
  -16.0430   32.7690  -24.6288 C   0  0  0  0  0  0  0  0  0  0  0  0
  -19.5142   33.9220  -23.3140 O   0  0  0  0  0  0  0  0  0  0  0  0
  -15.1262   33.3480  -25.4929 O   0  0  0  0  0  0  0  0  0  0  0  0
  -17.3546   33.5615  -24.2227 C   0  0  0  0  0  0  0  0  0  0  0  0
  -17.1636   34.7923  -24.9330 O   0  0  0  0  0  0  0  0  0  0  0  0
  -16.6957   35.9869  -24.4769 C   0  0  0  0  0  0  0  0  0  0  0  0
  1  2  2  0
  2  3  1  0
  3  4  1  0
  4  5  1  0
  5  6  1  0
  5  7  2  0
  6  8  1  0
  6  9  2  0
  7 10  1  0
  9 11  1  0
 10 12  1  0
  9 13  1  0
 10 13  2  0
 13 14  1  0
 14 15  1  0
M  END
