
     RDKit          3D

 16 16  0  0  0  0  0  0  0  0999 V2000
  -14.0649   27.5428  -22.6008 O   0  0  0  0  0  0  0  0  0  0  0  0
  -15.3394   28.1061  -22.3453 C   0  0  0  0  0  0  0  0  0  0  0  0
  -15.4870   29.4438  -22.5018 N   0  0  0  0  0  0  0  0  0  0  0  0
  -16.8245   29.9142  -22.3938 C   0  0  0  0  0  0  0  0  0  0  0  0
  -16.8718   31.2611  -22.9813 C   0  0  0  0  0  0  0  0  0  0  0  0
  -18.0771   31.9634  -22.8951 C   0  0  0  0  0  0  0  0  0  0  0  0
  -15.8883   31.6238  -23.9461 C   0  0  0  0  0  0  0  0  0  0  0  0
  -19.0821   31.4769  -21.9969 O   0  0  0  0  0  0  0  0  0  0  0  0
  -18.2923   33.1425  -23.4658 C   0  0  0  0  0  0  0  0  0  0  0  0
  -16.0430   32.7690  -24.6288 C   0  0  0  0  0  0  0  0  0  0  0  0
  -15.1356   33.3599  -25.4974 O   0  0  0  0  0  0  0  0  0  0  0  0
  -19.4778   33.9642  -23.3170 O   0  0  0  0  0  0  0  0  0  0  0  0
  -17.2577   33.6881  -24.4379 C   0  0  0  0  0  0  0  0  0  0  0  0
  -17.3383   34.9304  -25.1872 C   0  0  0  0  0  0  0  0  0  0  0  0
  -17.3535   34.8656  -26.5151 O   0  0  0  0  0  0  0  0  0  0  0  0
  -17.6303   36.0387  -24.6085 N   0  0  0  0  0  0  0  0  0  0  0  0
  1  2  2  0
  2  3  1  0
  3  4  1  0
  4  5  1  0
  5  6  1  0
  5  7  2  0
  6  8  1  0
  6  9  2  0
  7 10  1  0
 10 11  1  0
  9 12  1  0
  9 13  1  0
 10 13  2  0
 13 14  1  0
 14 15  2  0
 14 16  1  0
M  END
