
     RDKit          3D

 16 17  0  0  0  0  0  0  0  0999 V2000
  -14.7152   27.7977  -22.9432 O   0  0  0  0  0  0  0  0  0  0  0  0
  -15.2346   28.6312  -22.1626 C   0  0  0  0  0  0  0  0  0  0  0  0
  -15.8381   28.2368  -21.1823 O   0  0  0  0  0  0  0  0  0  0  0  0
  -15.6578   29.9892  -22.6611 C   0  0  0  0  0  0  0  0  0  0  0  0
  -16.9638   30.4501  -22.7177 C   0  0  0  0  0  0  0  0  0  0  0  0
  -14.5918   30.7517  -23.0750 C   0  0  0  0  0  0  0  0  0  0  0  0
  -14.9871   31.8505  -23.8265 C   0  0  0  0  0  0  0  0  0  0  0  0
  -16.2385   32.4336  -23.8511 C   0  0  0  0  0  0  0  0  0  0  0  0
  -17.2643   31.6595  -23.3229 N   0  0  0  0  0  0  0  0  0  0  0  0
  -16.6296   33.6082  -24.4111 C   0  0  0  0  0  0  0  0  0  0  0  0
  -18.5218   32.1953  -23.5062 C   0  0  0  0  0  0  0  0  0  0  0  0
  -16.0278   34.7189  -24.4650 C   0  0  0  0  0  0  0  0  0  0  0  0
  -18.1691   33.5995  -24.0713 N   0  0  0  0  0  0  0  0  0  0  0  0
  -16.1370   35.6325  -23.6915 O   0  0  0  0  0  0  0  0  0  0  0  0
  -19.5610   31.8453  -23.2068 O   0  0  0  0  0  0  0  0  0  0  0  0
  -15.5265   34.9700  -25.7918 O   0  0  0  0  0  0  0  0  0  0  0  0
  1  2  2  0
  2  3  1  0
  2  4  1  0
  4  5  1  0
  4  6  2  0
  6  7  1  0
  7  8  2  0
  5  9  1  0
  8  9  1  0
  8 10  1  0
  9 11  1  0
 10 12  1  0
 10 13  1  0
 11 13  1  0
 12 14  2  0
 11 15  2  0
 12 16  1  0
M  END
