
     RDKit          3D

 17 17  0  0  0  0  0  0  0  0999 V2000
  -14.5169   27.6502  -22.7320 O   0  0  0  0  0  0  0  0  0  0  0  0
  -15.5210   28.4057  -22.2744 C   0  0  0  0  0  0  0  0  0  0  0  0
  -16.5409   27.8984  -21.8835 O   0  0  0  0  0  0  0  0  0  0  0  0
  -15.5028   29.8498  -22.5415 C   0  0  0  0  0  0  0  0  0  0  0  0
  -16.6301   30.4736  -23.2478 C   0  0  0  0  0  0  0  0  0  0  0  0
  -17.8867   30.2469  -22.7972 N   0  0  0  0  0  0  0  0  0  0  0  0
  -16.3797   31.8885  -23.6155 C   0  0  0  0  0  0  0  0  0  0  0  0
  -15.3953   32.0259  -24.6035 O   0  0  0  0  0  0  0  0  0  0  0  0
  -17.7095   32.4314  -24.2379 C   0  0  0  0  0  0  0  0  0  0  0  0
  -17.7570   33.8406  -24.1786 O   0  0  0  0  0  0  0  0  0  0  0  0
  -16.7804   34.7414  -24.5798 P   0  0  0  0  0  0  0  0  0  0  0  0
  -17.3562   35.9132  -24.9682 O   0  0  0  0  0  0  0  0  0  0  0  0
  -16.0362   34.1847  -25.9725 O   0  0  0  0  0  0  0  0  0  0  0  0
  -15.7358   35.1324  -27.1102 C   0  0  0  0  0  0  0  0  0  0  0  0
  -18.6677   31.5097  -23.4769 C   0  0  0  0  0  0  0  0  0  0  0  0
  -15.8105   34.8852  -23.4364 O   0  0  0  0  0  0  0  0  0  0  0  0
  -16.6485   34.9020  -28.1471 C   0  0  0  0  0  0  0  0  0  0  0  0
  1  2  2  0
  2  3  1  0
  2  4  1  0
  4  5  1  0
  5  6  1  0
  5  7  1  0
  7  8  1  0
  7  9  1  0
  9 10  1  0
 10 11  1  0
 11 12  2  0
 11 13  1  0
 13 14  1  0
  6 15  1  0
  9 15  1  0
 11 16  1  0
 14 17  1  0
M  END
