
     RDKit          3D

 17 17  0  0  0  0  0  0  0  0999 V2000
  -14.3426   27.5557  -22.6185 O   0  0  0  0  0  0  0  0  0  0  0  0
  -15.4393   28.2702  -22.3010 C   0  0  0  0  0  0  0  0  0  0  0  0
  -16.4633   27.7438  -21.9940 O   0  0  0  0  0  0  0  0  0  0  0  0
  -15.3111   29.7323  -22.0455 C   0  0  0  0  0  0  0  0  0  0  0  0
  -15.0379   30.4674  -23.2698 C   0  0  0  0  0  0  0  0  0  0  0  0
  -16.0663   31.5443  -23.5586 C   0  0  0  0  0  0  0  0  0  0  0  0
  -17.4291   31.3031  -23.3093 C   0  0  0  0  0  0  0  0  0  0  0  0
  -15.7331   32.6345  -24.3118 C   0  0  0  0  0  0  0  0  0  0  0  0
  -14.4699   32.9590  -24.6346 F   0  0  0  0  0  0  0  0  0  0  0  0
  -16.7461   33.5783  -24.7454 C   0  0  0  0  0  0  0  0  0  0  0  0
  -16.3880   34.7659  -25.4858 C   0  0  0  0  0  0  0  0  0  0  0  0
  -18.4593   32.1304  -23.6566 C   0  0  0  0  0  0  0  0  0  0  0  0
  -18.0829   33.3049  -24.4602 C   0  0  0  0  0  0  0  0  0  0  0  0
  -19.5864   31.7351  -23.1060 O   0  0  0  0  0  0  0  0  0  0  0  0
  -16.5023   35.8232  -25.0230 O   0  0  0  0  0  0  0  0  0  0  0  0
  -16.0229   34.4671  -26.8475 N   0  0  0  0  0  0  0  0  0  0  0  0
  -15.9259   35.5449  -27.7292 C   0  0  0  0  0  0  0  0  0  0  0  0
  1  2  2  0
  2  3  1  0
  2  4  1  0
  4  5  1  0
  5  6  1  0
  6  7  1  0
  6  8  2  0
  8  9  1  0
  8 10  1  0
 10 11  1  0
  7 12  2  0
 10 13  2  0
 12 13  1  0
 12 14  1  0
 11 15  2  0
 11 16  1  0
 16 17  1  0
M  END
