
     RDKit          3D

 17 18  0  0  0  0  0  0  0  0999 V2000
  -16.4934   37.8736  -22.5094 O   0  0  0  0  0  0  0  0  0  0  0  0
  -17.3422   37.0857  -21.7022 P   0  0  0  0  0  0  0  0  0  0  0  0
  -17.6929   35.8211  -22.4745 O   0  0  0  0  0  0  0  0  0  0  0  0
  -16.8039   36.6267  -20.3776 O   0  0  0  0  0  0  0  0  0  0  0  0
  -18.6113   37.9897  -21.3920 O   0  0  0  0  0  0  0  0  0  0  0  0
  -18.7266   35.6707  -23.6463 C   0  0  0  0  0  0  0  0  0  0  0  0
  -18.5117   34.4122  -24.2834 C   0  0  0  0  0  0  0  0  0  0  0  0
  -18.1003   34.3231  -25.5239 O   0  0  0  0  0  0  0  0  0  0  0  0
  -16.6866   34.5099  -25.7830 C   0  0  0  0  0  0  0  0  0  0  0  0
  -17.5739   33.4500  -23.4766 O   0  0  0  0  0  0  0  0  0  0  0  0
  -15.8890   34.3311  -24.6906 C   0  0  0  0  0  0  0  0  0  0  0  0
  -16.4987   33.1179  -24.1539 C   0  0  0  0  0  0  0  0  0  0  0  0
  -16.5428   32.0272  -25.0618 C   0  0  0  0  0  0  0  0  0  0  0  0
  -16.3813   33.4005  -26.7448 C   0  0  0  0  0  0  0  0  0  0  0  0
  -16.8741   33.8414  -28.2064 O   0  0  0  0  0  0  0  0  0  0  0  0
  -14.5591   34.3439  -24.9198 O   0  0  0  0  0  0  0  0  0  0  0  0
  -17.0661   32.3447  -26.2614 C   0  0  0  0  0  0  0  0  0  0  0  0
  1  2  2  0
  2  3  1  0
  2  4  1  0
  2  5  1  0
  3  6  1  0
  6  7  1  0
  7  8  1  0
  8  9  1  0
  7 10  1  0
  9 11  1  0
 10 12  1  0
 11 12  1  0
 12 13  1  0
  9 14  1  0
 14 15  1  0
 11 16  1  0
 13 17  1  0
 14 17  1  0
M  END
