
     RDKit          3D

 17 18  0  0  0  0  0  0  0  0999 V2000
  -14.6184   27.6678  -22.7047 O   0  0  0  0  0  0  0  0  0  0  0  0
  -15.5904   28.2915  -21.9601 C   0  0  0  0  0  0  0  0  0  0  0  0
  -16.4347   27.7946  -21.4719 O   0  0  0  0  0  0  0  0  0  0  0  0
  -15.4916   29.7615  -21.9281 C   0  0  0  0  0  0  0  0  0  0  0  0
  -15.4768   30.5138  -23.0308 C   0  0  0  0  0  0  0  0  0  0  0  0
  -16.7546   31.1244  -23.5137 C   0  0  0  0  0  0  0  0  0  0  0  0
  -16.5957   32.1700  -24.4739 C   0  0  0  0  0  0  0  0  0  0  0  0
  -17.7472   32.8314  -25.0440 C   0  0  0  0  0  0  0  0  0  0  0  0
  -17.9474   30.6377  -23.0921 C   0  0  0  0  0  0  0  0  0  0  0  0
  -19.0900   31.2677  -23.6966 C   0  0  0  0  0  0  0  0  0  0  0  0
  -18.9864   32.2426  -24.6976 C   0  0  0  0  0  0  0  0  0  0  0  0
  -17.5534   33.9118  -26.2493 C   0  0  0  0  0  0  0  0  0  0  0  0
  -16.6981   33.6173  -27.1386 C   0  0  0  0  0  0  0  0  0  0  0  0
  -16.0135   34.5935  -27.8648 C   0  0  0  0  0  0  0  0  0  0  0  0
  -16.2916   35.7968  -27.2728 C   0  0  0  0  0  0  0  0  0  0  0  0
  -16.9891   36.1263  -26.2379 C   0  0  0  0  0  0  0  0  0  0  0  0
  -17.6106   35.0816  -25.5316 C   0  0  0  0  0  0  0  0  0  0  0  0
  1  2  1  0
  2  3  2  0
  2  4  1  0
  4  5  1  0
  5  6  1  0
  6  7  2  0
  7  8  1  0
  6  9  1  0
  9 10  2  0
  8 11  2  0
 10 11  1  0
  8 12  1  0
 12 13  1  0
 13 14  2  0
 14 15  1  0
 15 16  2  0
 12 17  2  0
 16 17  1  0
M  END
