
     RDKit          3D

 17 18  0  0  0  0  0  0  0  0999 V2000
  -14.7152   27.7977  -22.9432 O   0  0  0  0  0  0  0  0  0  0  0  0
  -15.2346   28.6312  -22.1626 C   0  0  0  0  0  0  0  0  0  0  0  0
  -15.8381   28.2368  -21.1823 O   0  0  0  0  0  0  0  0  0  0  0  0
  -15.6578   29.9892  -22.6611 C   0  0  0  0  0  0  0  0  0  0  0  0
  -16.9638   30.4501  -22.7177 C   0  0  0  0  0  0  0  0  0  0  0  0
  -14.5918   30.7517  -23.0750 C   0  0  0  0  0  0  0  0  0  0  0  0
  -14.9871   31.8505  -23.8265 C   0  0  0  0  0  0  0  0  0  0  0  0
  -16.2385   32.4336  -23.8511 C   0  0  0  0  0  0  0  0  0  0  0  0
  -17.2643   31.6595  -23.3229 N   0  0  0  0  0  0  0  0  0  0  0  0
  -16.6296   33.6082  -24.4111 C   0  0  0  0  0  0  0  0  0  0  0  0
  -18.5218   32.1953  -23.5062 C   0  0  0  0  0  0  0  0  0  0  0  0
  -16.0278   34.7189  -24.4650 C   0  0  0  0  0  0  0  0  0  0  0  0
  -18.1691   33.5995  -24.0713 N   0  0  0  0  0  0  0  0  0  0  0  0
  -15.3278   35.0121  -25.6268 O   0  0  0  0  0  0  0  0  0  0  0  0
  -15.9609   35.5693  -23.6131 O   0  0  0  0  0  0  0  0  0  0  0  0
  -19.5662   31.8483  -23.2005 O   0  0  0  0  0  0  0  0  0  0  0  0
  -19.2806   34.5586  -24.4195 C   0  0  0  0  0  0  0  0  0  0  0  0
  1  2  2  0
  2  3  1  0
  2  4  1  0
  4  5  1  0
  4  6  2  0
  6  7  1  0
  7  8  2  0
  5  9  1  0
  8  9  1  0
  8 10  1  0
  9 11  1  0
 10 12  1  0
 10 13  1  0
 11 13  1  0
 12 14  2  0
 12 15  1  0
 11 16  2  0
 13 17  1  0
M  END
