
     RDKit          3D

 18 18  0  0  0  0  0  0  0  0999 V2000
  -14.3426   27.5557  -22.6185 O   0  0  0  0  0  0  0  0  0  0  0  0
  -15.4393   28.2702  -22.3010 C   0  0  0  0  0  0  0  0  0  0  0  0
  -16.4633   27.7438  -21.9940 O   0  0  0  0  0  0  0  0  0  0  0  0
  -15.3111   29.7323  -22.0455 C   0  0  0  0  0  0  0  0  0  0  0  0
  -15.0379   30.4674  -23.2698 C   0  0  0  0  0  0  0  0  0  0  0  0
  -16.0663   31.5443  -23.5586 C   0  0  0  0  0  0  0  0  0  0  0  0
  -17.4291   31.3031  -23.3093 C   0  0  0  0  0  0  0  0  0  0  0  0
  -15.7331   32.6345  -24.3118 C   0  0  0  0  0  0  0  0  0  0  0  0
  -14.4699   32.9590  -24.6346 F   0  0  0  0  0  0  0  0  0  0  0  0
  -16.7461   33.5783  -24.7454 C   0  0  0  0  0  0  0  0  0  0  0  0
  -18.0751   33.3002  -24.3927 C   0  0  0  0  0  0  0  0  0  0  0  0
  -17.8813   30.1116  -22.5302 O   0  0  0  0  0  0  0  0  0  0  0  0
  -16.2381   34.8087  -25.6850 C   0  0  0  0  0  0  0  0  0  0  0  0
  -18.5290   32.1366  -23.6115 C   0  0  0  0  0  0  0  0  0  0  0  0
  -16.5428   34.5661  -27.0429 C   0  0  0  0  0  0  0  0  0  0  0  0
  -16.2303   35.8406  -25.1413 O   0  0  0  0  0  0  0  0  0  0  0  0
  -15.9094   35.4444  -27.8131 O   0  0  0  0  0  0  0  0  0  0  0  0
  -16.6708   33.4118  -27.8975 C   0  0  0  0  0  0  0  0  0  0  0  0
  1  2  2  0
  2  3  1  0
  2  4  1  0
  4  5  1  0
  5  6  1  0
  6  7  1  0
  6  8  2  0
  8  9  1  0
  8 10  1  0
 10 11  2  0
  7 12  1  0
 10 13  1  0
  7 14  2  0
 11 14  1  0
 13 15  1  0
 13 16  2  0
 15 17  1  0
 15 18  2  0
M  END
