
     RDKit          3D

 18 18  0  0  0  0  0  0  0  0999 V2000
  -16.4934   37.8736  -22.5094 O   0  0  0  0  0  0  0  0  0  0  0  0
  -17.2245   36.6752  -22.2008 P   0  0  0  0  0  0  0  0  0  0  0  0
  -16.7474   35.9723  -21.0499 O   0  0  0  0  0  0  0  0  0  0  0  0
  -17.2790   35.5997  -23.3425 O   0  0  0  0  0  0  0  0  0  0  0  0
  -18.6502   37.1728  -21.8891 O   0  0  0  0  0  0  0  0  0  0  0  0
  -18.0122   34.3601  -23.3755 C   0  0  0  0  0  0  0  0  0  0  0  0
  -17.1251   33.2126  -23.6623 C   0  0  0  0  0  0  0  0  0  0  0  0
  -17.8256   31.9319  -23.6265 C   0  0  0  0  0  0  0  0  0  0  0  0
  -16.5444   33.4336  -25.0732 C   0  0  0  0  0  0  0  0  0  0  0  0
  -16.9812   30.8444  -23.3166 C   0  0  0  0  0  0  0  0  0  0  0  0
  -18.5569   31.5790  -24.8670 C   0  0  0  0  0  0  0  0  0  0  0  0
  -15.6611   30.9630  -23.3226 O   0  0  0  0  0  0  0  0  0  0  0  0
  -17.5333   33.4748  -26.1482 C   0  0  0  0  0  0  0  0  0  0  0  0
  -18.3071   32.2973  -26.0101 C   0  0  0  0  0  0  0  0  0  0  0  0
  -17.4109   29.7728  -22.7350 O   0  0  0  0  0  0  0  0  0  0  0  0
  -17.0764   33.8278  -27.4512 C   0  0  0  0  0  0  0  0  0  0  0  0
  -16.5968   32.8593  -28.0370 O   0  0  0  0  0  0  0  0  0  0  0  0
  -16.9225   35.0191  -27.7898 O   0  0  0  0  0  0  0  0  0  0  0  0
  1  2  1  0
  2  3  1  0
  2  4  1  0
  2  5  2  0
  4  6  1  0
  6  7  1  0
  7  8  1  0
  7  9  1  0
  8 10  1  0
  8 11  1  0
 10 12  2  0
  9 13  1  0
 11 14  1  0
 13 14  1  0
 10 15  1  0
 13 16  1  0
 16 17  1  0
 16 18  2  0
M  END
