
     RDKit          3D

 18 18  0  0  0  0  0  0  0  0999 V2000
  -16.7684   36.3227  -19.9037 O   0  0  0  0  0  0  0  0  0  0  0  0
  -17.9844   36.5144  -20.3865 P   0  0  0  0  0  0  0  0  0  0  0  0
  -18.1131   35.8689  -21.7351 O   0  0  0  0  0  0  0  0  0  0  0  0
  -17.4536   36.2826  -23.1083 P   0  0  0  0  0  0  0  0  0  0  0  0
  -17.9042   37.3211  -23.6196 O   0  0  0  0  0  0  0  0  0  0  0  0
  -19.0097   35.5257  -19.4558 O   0  0  0  0  0  0  0  0  0  0  0  0
  -18.7114   37.8756  -20.4476 O   0  0  0  0  0  0  0  0  0  0  0  0
  -17.3634   35.0631  -24.0099 O   0  0  0  0  0  0  0  0  0  0  0  0
  -15.9767   36.3864  -22.3548 O   0  0  0  0  0  0  0  0  0  0  0  0
  -17.1950   35.1260  -25.4155 C   0  0  0  0  0  0  0  0  0  0  0  0
  -18.1242   34.3265  -26.1556 C   0  0  0  0  0  0  0  0  0  0  0  0
  -17.6422   33.7672  -27.3148 C   0  0  0  0  0  0  0  0  0  0  0  0
  -18.6919   33.2457  -25.3113 O   0  0  0  0  0  0  0  0  0  0  0  0
  -17.9002   32.4873  -24.6614 C   0  0  0  0  0  0  0  0  0  0  0  0
  -16.8119   32.0402  -25.4763 C   0  0  0  0  0  0  0  0  0  0  0  0
  -18.5429   31.2074  -24.1388 C   0  0  0  0  0  0  0  0  0  0  0  0
  -16.9659   32.3806  -26.8530 C   0  0  0  0  0  0  0  0  0  0  0  0
  -18.1383   30.7622  -22.9054 N   0  0  0  0  0  0  0  0  0  0  0  0
  1  2  1  0
  2  3  1  0
  3  4  1  0
  4  5  2  0
  2  6  2  0
  2  7  1  0
  4  8  1  0
  4  9  1  0
  8 10  1  0
 10 11  1  0
 11 12  1  0
 11 13  1  0
 13 14  1  0
 14 15  1  0
 14 16  1  0
 12 17  1  0
 15 17  1  0
 16 18  1  0
M  END
