
     RDKit          3D

 18 18  0  0  0  0  0  0  0  0999 V2000
  -16.4934   37.8736  -22.5094 O   0  0  0  0  0  0  0  0  0  0  0  0
  -17.3422   37.0857  -21.7022 P   0  0  0  0  0  0  0  0  0  0  0  0
  -18.5832   37.7101  -21.4991 O   0  0  0  0  0  0  0  0  0  0  0  0
  -17.7300   35.7117  -22.5285 O   0  0  0  0  0  0  0  0  0  0  0  0
  -19.0708   35.0523  -22.5495 P   0  0  0  0  0  0  0  0  0  0  0  0
  -16.8647   36.6848  -20.2612 O   0  0  0  0  0  0  0  0  0  0  0  0
  -19.2375   34.3418  -21.3459 O   0  0  0  0  0  0  0  0  0  0  0  0
  -18.7128   33.9016  -23.6518 O   0  0  0  0  0  0  0  0  0  0  0  0
  -17.7587   34.1166  -24.7024 C   0  0  0  0  0  0  0  0  0  0  0  0
  -20.1392   35.8998  -22.9973 O   0  0  0  0  0  0  0  0  0  0  0  0
  -16.5520   33.5103  -24.4838 C   0  0  0  0  0  0  0  0  0  0  0  0
  -18.4661   33.5997  -26.0180 C   0  0  0  0  0  0  0  0  0  0  0  0
  -17.5019   33.2745  -26.9263 C   0  0  0  0  0  0  0  0  0  0  0  0
  -19.4452   34.7059  -26.4055 O   0  0  0  0  0  0  0  0  0  0  0  0
  -16.1210   33.4225  -26.0359 C   0  0  0  0  0  0  0  0  0  0  0  0
  -15.5264   34.1819  -23.9420 O   0  0  0  0  0  0  0  0  0  0  0  0
  -15.4099   34.5801  -26.4196 O   0  0  0  0  0  0  0  0  0  0  0  0
  -17.4851   31.9706  -27.4077 O   0  0  0  0  0  0  0  0  0  0  0  0
  1  2  2  0
  2  3  1  0
  2  4  1  0
  4  5  1  0
  2  6  1  0
  5  7  1  0
  5  8  1  0
  8  9  1  0
  5 10  2  0
  9 11  1  0
  9 12  1  0
 12 13  1  0
 12 14  1  0
 11 15  1  0
 13 15  1  0
 11 16  1  0
 15 17  1  0
 13 18  1  0
M  END
