
     RDKit          3D

 12 11  0  0  0  0  0  0  0  0999 V2000
  -16.4706   36.7335  -21.3453 O   0  0  0  0  0  0  0  0  0  0  0  0
  -17.8476   36.5063  -20.7977 P   0  0  0  0  0  0  0  0  0  0  0  0
  -18.5276   35.3828  -21.6077 O   0  0  0  0  0  0  0  0  0  0  0  0
  -18.7183   37.7938  -20.9715 O   0  0  0  0  0  0  0  0  0  0  0  0
  -19.6984   34.5526  -21.1801 P   0  0  0  0  0  0  0  0  0  0  0  0
  -19.6388   33.3018  -21.9139 O   0  0  0  0  0  0  0  0  0  0  0  0
  -21.0075   35.1869  -21.4580 O   0  0  0  0  0  0  0  0  0  0  0  0
  -19.4545   34.3439  -19.6418 O   0  0  0  0  0  0  0  0  0  0  0  0
  -17.7577   36.1553  -19.3675 O   0  0  0  0  0  0  0  0  0  0  0  0
  -18.8535   32.1126  -21.7324 C   0  0  0  0  0  0  0  0  0  0  0  0
  -19.3102   30.9858  -22.1832 O   0  0  0  0  0  0  0  0  0  0  0  0
  -17.7582   32.1087  -21.1452 O   0  0  0  0  0  0  0  0  0  0  0  0
  1  2  2  0
  2  3  1  0
  2  4  1  0
  3  5  1  0
  5  6  1  0
  5  7  2  0
  5  8  1  0
  2  9  1  0
  6 10  1  0
 10 11  1  0
 10 12  2  0
M  END
