
     RDKit          3D

 18 17  0  0  0  0  0  0  0  0999 V2000
  -16.2832   37.8929  -22.7004 O   0  0  0  0  0  0  0  0  0  0  0  0
  -17.1651   36.8788  -22.3130 P   0  0  0  0  0  0  0  0  0  0  0  0
  -17.0035   36.3610  -20.9358 O   0  0  0  0  0  0  0  0  0  0  0  0
  -17.0613   35.6931  -23.1672 O   0  0  0  0  0  0  0  0  0  0  0  0
  -18.0428   34.6328  -23.4993 C   0  0  0  0  0  0  0  0  0  0  0  0
  -17.4363   33.3340  -23.5044 C   0  0  0  0  0  0  0  0  0  0  0  0
  -18.6512   37.5393  -22.4519 O   0  0  0  0  0  0  0  0  0  0  0  0
  -18.3807   32.3290  -23.4268 C   0  0  0  0  0  0  0  0  0  0  0  0
  -17.8462   31.0461  -23.6955 C   0  0  0  0  0  0  0  0  0  0  0  0
  -19.4980   32.4181  -24.3309 O   0  0  0  0  0  0  0  0  0  0  0  0
  -16.7797   33.2311  -24.8569 O   0  0  0  0  0  0  0  0  0  0  0  0
  -16.6421   30.8171  -22.9079 O   0  0  0  0  0  0  0  0  0  0  0  0
  -15.5422   33.5156  -25.1297 C   0  0  0  0  0  0  0  0  0  0  0  0
  -16.1847   29.5911  -22.2893 C   0  0  0  0  0  0  0  0  0  0  0  0
  -15.3118   29.0561  -22.7874 O   0  0  0  0  0  0  0  0  0  0  0  0
  -15.4070   34.7315  -25.8717 C   0  0  0  0  0  0  0  0  0  0  0  0
  -16.2178   34.6841  -27.1333 C   0  0  0  0  0  0  0  0  0  0  0  0
  -15.8444   33.7710  -28.0579 O   0  0  0  0  0  0  0  0  0  0  0  0
  1  2  2  0
  2  3  1  0
  2  4  1  0
  4  5  1  0
  5  6  1  0
  2  7  1  0
  6  8  1  0
  8  9  1  0
  8 10  1  0
  6 11  1  0
  9 12  1  0
 11 13  1  0
 12 14  1  0
 14 15  2  0
 13 16  1  0
 16 17  1  0
 17 18  1  0
M  END
