
     RDKit          3D

 19 20  0  0  0  0  0  0  0  0999 V2000
  -14.9034   28.1500  -22.8611 O   0  0  0  0  0  0  0  0  0  0  0  0
  -15.7405   28.7437  -22.1231 C   0  0  0  0  0  0  0  0  0  0  0  0
  -15.9159   30.0829  -22.2993 N   0  0  0  0  0  0  0  0  0  0  0  0
  -16.7656   30.6212  -23.1829 C   0  0  0  0  0  0  0  0  0  0  0  0
  -16.4093   31.7068  -23.9455 C   0  0  0  0  0  0  0  0  0  0  0  0
  -18.1711   30.8718  -22.8630 C   0  0  0  0  0  0  0  0  0  0  0  0
  -18.6151   31.8931  -23.5655 C   0  0  0  0  0  0  0  0  0  0  0  0
  -16.1804   28.1139  -20.9609 N   0  0  0  0  0  0  0  0  0  0  0  0
  -17.4821   32.3866  -24.3606 N   0  0  0  0  0  0  0  0  0  0  0  0
  -17.4669   33.7254  -24.9654 C   0  0  0  0  0  0  0  0  0  0  0  0
  -15.2332   31.7451  -24.4891 O   0  0  0  0  0  0  0  0  0  0  0  0
  -16.7573   34.6912  -24.3923 C   0  0  0  0  0  0  0  0  0  0  0  0
  -18.7398   34.3187  -25.3731 C   0  0  0  0  0  0  0  0  0  0  0  0
  -19.4201   33.6465  -26.3365 O   0  0  0  0  0  0  0  0  0  0  0  0
  -19.2178   35.3100  -24.8967 O   0  0  0  0  0  0  0  0  0  0  0  0
  -16.5760   33.3272  -26.2410 C   0  0  0  0  0  0  0  0  0  0  0  0
  -16.5125   34.3818  -27.3106 C   0  0  0  0  0  0  0  0  0  0  0  0
  -15.9300   35.5358  -25.0268 C   0  0  0  0  0  0  0  0  0  0  0  0
  -15.7982   35.4562  -26.4741 C   0  0  0  0  0  0  0  0  0  0  0  0
  1  2  2  0
  2  3  1  0
  3  4  1  0
  4  5  1  0
  4  6  1  0
  6  7  2  0
  2  8  1  0
  5  9  1  0
  7  9  1  0
  9 10  1  0
  5 11  2  0
 10 12  1  0
 10 13  1  0
 13 14  2  0
 13 15  1  0
 10 16  1  0
 16 17  1  0
 12 18  2  0
 17 19  1  0
 18 19  1  0
M  END
