
     RDKit          3D

 19 20  0  0  0  0  0  0  0  0999 V2000
  -16.4934   37.8736  -22.5094 O   0  0  0  0  0  0  0  0  0  0  0  0
  -17.2245   36.6752  -22.2008 P   0  0  0  0  0  0  0  0  0  0  0  0
  -16.7474   35.9723  -21.0499 O   0  0  0  0  0  0  0  0  0  0  0  0
  -17.2790   35.5997  -23.3425 O   0  0  0  0  0  0  0  0  0  0  0  0
  -18.6502   37.1728  -21.8891 O   0  0  0  0  0  0  0  0  0  0  0  0
  -18.0122   34.3601  -23.3755 C   0  0  0  0  0  0  0  0  0  0  0  0
  -17.1251   33.2126  -23.6623 C   0  0  0  0  0  0  0  0  0  0  0  0
  -17.8256   31.9319  -23.6265 C   0  0  0  0  0  0  0  0  0  0  0  0
  -16.5444   33.4336  -25.0732 C   0  0  0  0  0  0  0  0  0  0  0  0
  -16.9812   30.8444  -23.3166 C   0  0  0  0  0  0  0  0  0  0  0  0
  -18.5569   31.5790  -24.8670 C   0  0  0  0  0  0  0  0  0  0  0  0
  -15.6611   30.9630  -23.3226 O   0  0  0  0  0  0  0  0  0  0  0  0
  -18.2349   32.4918  -25.9626 C   0  0  0  0  0  0  0  0  0  0  0  0
  -15.5434   34.3512  -25.2478 N   0  0  0  0  0  0  0  0  0  0  0  0
  -17.3771   29.7324  -22.8336 O   0  0  0  0  0  0  0  0  0  0  0  0
  -17.2067   33.1087  -26.1930 C   0  0  0  0  0  0  0  0  0  0  0  0
  -15.2241   34.6511  -26.5694 C   0  0  0  0  0  0  0  0  0  0  0  0
  -16.2294   34.2735  -27.4334 C   0  0  0  0  0  0  0  0  0  0  0  0
  -14.6319   35.5396  -26.7749 O   0  0  0  0  0  0  0  0  0  0  0  0
  1  2  1  0
  2  3  1  0
  2  4  1  0
  2  5  2  0
  4  6  1  0
  6  7  1  0
  7  8  1  0
  7  9  1  0
  8 10  1  0
  8 11  1  0
 10 12  2  0
 11 13  1  0
  9 14  2  0
 10 15  1  0
  9 16  1  0
 13 16  1  0
 14 17  1  0
 16 18  1  0
 17 18  1  0
 17 19  2  0
M  END
